

         NASA-GLENN CHEMICAL EQUILIBRIUM PROGRAM CEA2, FEBRUARY 5, 2004
                   BY  BONNIE MCBRIDE AND SANFORD GORDON
      REFS: NASA RP-1311, PART I, 1994 AND NASA RP-1311, PART II, 1996

 *******************************************************************************

  
 ### CEA analysis performed on Thu 17-Oct-2024 01:55:57
  
 # Problem Type: "Rocket" (Infinite Area Combustor)
  
 prob case=_______________8483 ro equilibrium
  
 # Pressure (11 values):
 p,bar= 15, 16, 17, 18, 19, 20, 21, 22, 23, 24, 25
 # Chamber/Exit Pressure Ratio (4 values):
 pi/p= 5, 10, 15, 20
  
 # Oxidizer/Fuel Wt. ratio (21 values):
 o/f= 0.5, 0.6, 0.7, 0.8, 0.9, 1, 1.1, 1.2, 1.3, 1.4, 1.5, 1.6, 1.7, 1.8, 1.9, 2,
  2.1, 2.2, 2.3, 2.4, 2.5
  
 # You selected the following fuels and oxidizers:
 reac
 fuel C2H5OH(L)         wt%=100.0000  t,k= 296.000
 oxid O2                wt%=100.0000  t,k= 296.000
  
 # You selected these options for output:
 # short version of output
 output short
 # Proportions of any products will be expressed as Mass Fractions.
 output massf
 # Heat will be expressed as siunits
 output siunits
  
 # Input prepared by this script:/var/www/sites/cearun.grc.nasa.gov/cgi-bin/CEARU
 N/prepareInputFile.cgi
  
 ### IMPORTANT:  The following line is the end of your CEA input file!
 end

              THEORETICAL ROCKET PERFORMANCE ASSUMING EQUILIBRIUM

           COMPOSITION DURING EXPANSION FROM INFINITE AREA COMBUSTOR

 Pin =   217.6 PSIA
 CASE = _______________

             REACTANT                    WT FRACTION      ENERGY      TEMP
                                          (SEE NOTE)     KJ/KG-MOL      K  
 FUEL        C2H5OH(L)                    1.0000000   -277750.443    296.000
 OXIDANT     O2                           1.0000000       -63.152    296.000

 O/F=    0.50000  %FUEL= 66.666667  R,EQ.RATIO= 2.869214  PHI,EQ.RATIO= 4.167556

                 CHAMBER   THROAT     EXIT     EXIT     EXIT     EXIT
 Pinf/P            1.0000   1.7318   5.0000   10.000   15.000   20.000
 P, BAR            15.000   8.6618   3.0000   1.5000   1.0000  0.75000
 T, K             1142.53  1087.00   994.20   941.20   912.36   892.70
 RHO, KG/CU M    2.4990 0 1.5435 0 6.0372-1 3.2537-1 2.2637-1 1.7491-1
 H, KJ/KG        -4020.05 -4338.73 -4898.55 -5230.30 -5413.29 -5538.49
 U, KJ/KG        -4620.30 -4899.92 -5395.47 -5691.31 -5855.05 -5967.28
 G, KJ/KG        -18566.0 -18177.8 -17556.0 -17213.1 -17028.8 -16903.8
 S, KJ/(KG)(K)    12.7313  12.7313  12.7313  12.7313  12.7313  12.7313

 M, (1/n)          15.826   16.105   16.635   16.975   17.172   17.310
 MW, MOL WT        15.797   15.674   15.452   15.325   15.259   15.216
 (dLV/dLP)t      -1.11861 -1.11917 -1.11525 -1.10996 -1.10618 -1.10329
 (dLV/dLT)p        2.6128   2.7079   2.7954   2.7888   2.7649   2.7403
 Cp, KJ/(KG)(K)   14.6806  15.8596  17.3041  17.6247  17.5929  17.4790
 GAMMAs            1.1438   1.1358   1.1242   1.1188   1.1163   1.1149
 SON VEL,M/SEC      828.6    798.4    747.4    718.2    702.3    691.4
 MACH NUMBER        0.000    1.000    1.773    2.166    2.377    2.520

 PERFORMANCE PARAMETERS

 Ae/At                      1.0000   1.5398   2.4342   3.2610   4.0425
 CSTAR, M/SEC               1217.3   1217.3   1217.3   1217.3   1217.3
 CF                         0.6558   1.0889   1.2781   1.3713   1.4316
 Ivac, M/SEC                1501.3   1700.4   1852.1   1933.9   1988.7
 Isp, M/SEC                  798.4   1325.5   1555.8   1669.3   1742.7

 MASS FRACTIONS

 CH4              0.07260  0.06862  0.06127  0.05698  0.05471  0.05324
 *CO              0.56202  0.50375  0.39605  0.33032  0.29392  0.26909
 *CO2             0.18635  0.21884  0.28080  0.31929  0.34060  0.35504
 C2H4             0.00001  0.00000  0.00000  0.00000  0.00000  0.00000
 C2H6             0.00001  0.00001  0.00000  0.00000  0.00000  0.00000
 *H2              0.05562  0.05540  0.05517  0.05505  0.05495  0.05486
 H2O              0.12199  0.13287  0.15142  0.16218  0.16815  0.17229
 C(gr)            0.00140  0.02051  0.05529  0.07618  0.08767  0.09548

  * THERMODYNAMIC PROPERTIES FITTED TO 20000.K

 NOTE. WEIGHT FRACTION OF FUEL IN TOTAL FUELS AND OF OXIDANT IN TOTAL OXIDANTS

              THEORETICAL ROCKET PERFORMANCE ASSUMING EQUILIBRIUM

           COMPOSITION DURING EXPANSION FROM INFINITE AREA COMBUSTOR

 Pin =   232.1 PSIA
 CASE = _______________

             REACTANT                    WT FRACTION      ENERGY      TEMP
                                          (SEE NOTE)     KJ/KG-MOL      K  
 FUEL        C2H5OH(L)                    1.0000000   -277750.443    296.000
 OXIDANT     O2                           1.0000000       -63.152    296.000

 O/F=    0.50000  %FUEL= 66.666667  R,EQ.RATIO= 2.869214  PHI,EQ.RATIO= 4.167556

                 CHAMBER   THROAT     EXIT     EXIT     EXIT     EXIT
 Pinf/P            1.0000   1.7320   5.0000   10.000   15.000   20.000
 P, BAR            16.000   9.2381   3.2000   1.6000   1.0667  0.80000
 T, K             1146.80  1090.87   997.44   944.11   915.09   895.32
 RHO, KG/CU M    2.6600 0 1.6430 0 6.4291-1 3.4655-1 2.4112-1 1.8632-1
 H, KJ/KG        -4020.05 -4339.44 -4900.19 -5232.47 -5415.71 -5541.09
 U, KJ/KG        -4621.54 -4901.70 -5397.93 -5694.16 -5858.09 -5970.45
 G, KJ/KG        -18581.5 -18190.7 -17565.2 -17220.2 -17035.0 -16909.4
 S, KJ/(KG)(K)    12.6975  12.6975  12.6975  12.6975  12.6975  12.6975

 M, (1/n)          15.852   16.131   16.662   17.002   17.199   17.338
 MW, MOL WT        15.836   15.711   15.485   15.356   15.289   15.245
 (dLV/dLP)t      -1.11898 -1.11955 -1.11564 -1.11036 -1.10658 -1.10369
 (dLV/dLT)p        2.6106   2.7059   2.7941   2.7883   2.7648   2.7404
 Cp, KJ/(KG)(K)   14.5928  15.7677  17.2127  17.5390  17.5120  17.4019
 GAMMAs            1.1441   1.1361   1.1245   1.1191   1.1166   1.1152
 SON VEL,M/SEC      829.6    799.2    748.1    718.8    702.8    692.0
 MACH NUMBER        0.000    1.000    1.773    2.166    2.377    2.521

 PERFORMANCE PARAMETERS

 Ae/At                      1.0000   1.5395   2.4334   3.2597   4.0407
 CSTAR, M/SEC               1218.4   1218.4   1218.4   1218.4   1218.4
 CF                         0.6560   1.0889   1.2780   1.3712   1.4315
 Ivac, M/SEC                1502.7   1701.9   1853.7   1935.5   1990.3
 Isp, M/SEC                  799.2   1326.8   1557.2   1670.7   1744.2

 MASS FRACTIONS

 CH4              0.07385  0.06981  0.06237  0.05802  0.05573  0.05423
 *CO              0.56151  0.50330  0.39573  0.33007  0.29370  0.26889
 *CO2             0.18599  0.21836  0.28007  0.31842  0.33965  0.35404
 C2H4             0.00001  0.00000  0.00000  0.00000  0.00000  0.00000
 C2H6             0.00001  0.00001  0.00000  0.00000  0.00000  0.00000
 *H2              0.05523  0.05503  0.05481  0.05469  0.05459  0.05450
 H2O              0.12261  0.13355  0.15222  0.16306  0.16907  0.17324
 C(gr)            0.00078  0.01994  0.05480  0.07575  0.08726  0.09509

  * THERMODYNAMIC PROPERTIES FITTED TO 20000.K

 NOTE. WEIGHT FRACTION OF FUEL IN TOTAL FUELS AND OF OXIDANT IN TOTAL OXIDANTS

              THEORETICAL ROCKET PERFORMANCE ASSUMING EQUILIBRIUM

           COMPOSITION DURING EXPANSION FROM INFINITE AREA COMBUSTOR

 Pin =   246.6 PSIA
 CASE = _______________

             REACTANT                    WT FRACTION      ENERGY      TEMP
                                          (SEE NOTE)     KJ/KG-MOL      K  
 FUEL        C2H5OH(L)                    1.0000000   -277750.443    296.000
 OXIDANT     O2                           1.0000000       -63.152    296.000

 O/F=    0.50000  %FUEL= 66.666667  R,EQ.RATIO= 2.869214  PHI,EQ.RATIO= 4.167556

                 CHAMBER   THROAT     EXIT     EXIT     EXIT     EXIT
 Pinf/P            1.0000   1.7322   5.0000   10.000   15.000   20.000
 P, BAR            17.000   9.8143   3.4000   1.7000   1.1333  0.85000
 T, K             1150.84  1094.52  1000.51   946.85   917.67   897.79
 RHO, KG/CU M    2.8208 0 1.7424 0 6.8203-1 3.6770-1 2.5585-1 1.9772-1
 H, KJ/KG        -4020.05 -4340.10 -4901.73 -5234.50 -5417.99 -5543.53
 U, KJ/KG        -4622.72 -4903.37 -5400.24 -5696.83 -5860.95 -5973.43
 G, KJ/KG        -18596.2 -18202.9 -17573.8 -17227.1 -17040.9 -16914.6
 S, KJ/(KG)(K)    12.6657  12.6657  12.6657  12.6657  12.6657  12.6657

 M, (1/n)          15.877   16.156   16.687   17.028   17.225   17.364
 MW, MOL WT        15.873   15.745   15.516   15.385   15.317   15.272
 (dLV/dLP)t      -1.11932 -1.11989 -1.11599 -1.11072 -1.10695 -1.10405
 (dLV/dLT)p        2.6084   2.7039   2.7928   2.7876   2.7646   2.7405
 Cp, KJ/(KG)(K)   14.5101  15.6809  17.1263  17.4579  17.4353  17.3288
 GAMMAs            1.1445   1.1364   1.1248   1.1194   1.1169   1.1154
 SON VEL,M/SEC      830.5    800.1    748.8    719.4    703.4    692.5
 MACH NUMBER        0.000    1.000    1.773    2.166    2.377    2.521

 PERFORMANCE PARAMETERS

 Ae/At                      1.0000   1.5392   2.4326   3.2585   4.0391
 CSTAR, M/SEC               1219.5   1219.5   1219.5   1219.5   1219.5
 CF                         0.6561   1.0889   1.2780   1.3711   1.4314
 Ivac, M/SEC                1504.1   1703.3   1855.2   1937.0   1991.8
 Isp, M/SEC                  800.1   1327.9   1558.5   1672.1   1745.6

 MASS FRACTIONS

 CH4              0.07503  0.07094  0.06342  0.05901  0.05669  0.05517
 *CO              0.56102  0.50287  0.39543  0.32983  0.29349  0.26871
 *CO2             0.18566  0.21792  0.27940  0.31761  0.33877  0.35310
 C2H4             0.00001  0.00000  0.00000  0.00000  0.00000  0.00000
 C2H6             0.00001  0.00001  0.00000  0.00000  0.00000  0.00000
 *H2              0.05487  0.05467  0.05446  0.05435  0.05426  0.05417
 H2O              0.12320  0.13419  0.15296  0.16387  0.16992  0.17413
 C(gr)            0.00019  0.01939  0.05433  0.07533  0.08687  0.09472

  * THERMODYNAMIC PROPERTIES FITTED TO 20000.K

 NOTE. WEIGHT FRACTION OF FUEL IN TOTAL FUELS AND OF OXIDANT IN TOTAL OXIDANTS

              THEORETICAL ROCKET PERFORMANCE ASSUMING EQUILIBRIUM

           COMPOSITION DURING EXPANSION FROM INFINITE AREA COMBUSTOR

 Pin =   261.1 PSIA
 CASE = _______________

             REACTANT                    WT FRACTION      ENERGY      TEMP
                                          (SEE NOTE)     KJ/KG-MOL      K  
 FUEL        C2H5OH(L)                    1.0000000   -277750.443    296.000
 OXIDANT     O2                           1.0000000       -63.152    296.000

 O/F=    0.50000  %FUEL= 66.666667  R,EQ.RATIO= 2.869214  PHI,EQ.RATIO= 4.167556

                 CHAMBER   THROAT     EXIT     EXIT     EXIT     EXIT
 Pinf/P            1.0000   1.7323   5.0000   10.000   15.000   20.000
 P, BAR            18.000   10.391   3.6000   1.8000   1.2000  0.90000
 T, K             1154.82  1097.98  1003.41   949.46   920.11   900.13
 RHO, KG/CU M    2.9807 0 1.8416 0 7.2110-1 3.8881-1 2.7057-1 2.0911-1
 H, KJ/KG        -4020.05 -4340.73 -4903.19 -5236.41 -5420.14 -5545.83
 U, KJ/KG        -4623.93 -4904.95 -5402.42 -5699.36 -5863.65 -5976.24
 G, KJ/KG        -18612.1 -18214.5 -17582.1 -17233.5 -17046.5 -16919.7
 S, KJ/(KG)(K)    12.6358  12.6358  12.6358  12.6358  12.6358  12.6358

 M, (1/n)          15.900   16.180   16.711   17.052   17.249   17.389
 MW, MOL WT        15.900   15.779   15.546   15.413   15.343   15.299
 (dLV/dLP)t      -1.10872 -1.12020 -1.11632 -1.11106 -1.10729 -1.10439
 (dLV/dLT)p        2.3610   2.7019   2.7915   2.7869   2.7642   2.7404
 Cp, KJ/(KG)(K)   11.5471  15.5987  17.0443  17.3808  17.3624  17.2593
 GAMMAs            1.1678   1.1367   1.1250   1.1196   1.1171   1.1156
 SON VEL,M/SEC      839.8    800.9    749.4    719.9    703.9    693.0
 MACH NUMBER        0.000    1.000    1.773    2.166    2.377    2.521

 PERFORMANCE PARAMETERS

 Ae/At                      1.0000   1.5389   2.4319   3.2573   4.0375
 CSTAR, M/SEC               1220.5   1220.5   1220.5   1220.5   1220.5
 CF                         0.6562   1.0889   1.2779   1.3711   1.4313
 Ivac, M/SEC                1505.4   1704.7   1856.5   1938.4   1993.3
 Isp, M/SEC                  800.9   1329.0   1559.7   1673.4   1746.9

 MASS FRACTIONS

 CH4              0.07588  0.07202  0.06441  0.05995  0.05760  0.05607
 *CO              0.56016  0.50246  0.39514  0.32960  0.29330  0.26853
 *CO2             0.18537  0.21751  0.27877  0.31686  0.33794  0.35223
 C2H4             0.00001  0.00000  0.00000  0.00000  0.00000  0.00000
 C2H6             0.00001  0.00001  0.00000  0.00000  0.00000  0.00000
 *H2              0.05457  0.05433  0.05413  0.05403  0.05394  0.05385
 H2O              0.12399  0.13479  0.15366  0.16464  0.17072  0.17495
 C(gr)            0.00000  0.01887  0.05388  0.07493  0.08650  0.09437

  * THERMODYNAMIC PROPERTIES FITTED TO 20000.K

 NOTE. WEIGHT FRACTION OF FUEL IN TOTAL FUELS AND OF OXIDANT IN TOTAL OXIDANTS

              THEORETICAL ROCKET PERFORMANCE ASSUMING EQUILIBRIUM

           COMPOSITION DURING EXPANSION FROM INFINITE AREA COMBUSTOR

 Pin =   275.6 PSIA
 CASE = _______________

             REACTANT                    WT FRACTION      ENERGY      TEMP
                                          (SEE NOTE)     KJ/KG-MOL      K  
 FUEL        C2H5OH(L)                    1.0000000   -277750.443    296.000
 OXIDANT     O2                           1.0000000       -63.152    296.000

 O/F=    0.50000  %FUEL= 66.666667  R,EQ.RATIO= 2.869214  PHI,EQ.RATIO= 4.167556

                 CHAMBER   THROAT     EXIT     EXIT     EXIT     EXIT
 Pinf/P            1.0000   1.7325   5.0000   10.000   15.000   20.000
 P, BAR            19.000   10.967   3.8000   1.9000   1.2667  0.95000
 T, K             1158.68  1101.27  1006.18   951.93   922.44   902.36
 RHO, KG/CU M    3.1401 0 1.9406 0 7.6011-1 4.0991-1 2.8527-1 2.2048-1
 H, KJ/KG        -4020.05 -4341.32 -4904.56 -5238.23 -5422.18 -5548.01
 U, KJ/KG        -4625.13 -4906.44 -5404.49 -5701.75 -5866.20 -5978.90
 G, KJ/KG        -18628.1 -18225.6 -17590.0 -17239.7 -17051.8 -16924.5
 S, KJ/(KG)(K)    12.6075  12.6075  12.6075  12.6075  12.6075  12.6075

 M, (1/n)          15.921   16.203   16.734   17.075   17.273   17.412
 MW, MOL WT        15.921   15.811   15.574   15.439   15.369   15.324
 (dLV/dLP)t      -1.10902 -1.12049 -1.11662 -1.11137 -1.10760 -1.10471
 (dLV/dLT)p        2.3601   2.6999   2.7901   2.7861   2.7638   2.7402
 Cp, KJ/(KG)(K)   11.4982  15.5206  16.9663  17.3075  17.2929  17.1929
 GAMMAs            1.1682   1.1370   1.1253   1.1198   1.1173   1.1159
 SON VEL,M/SEC      840.7    801.6    750.0    720.5    704.4    693.4
 MACH NUMBER        0.000    1.000    1.773    2.166    2.377    2.521

 PERFORMANCE PARAMETERS

 Ae/At                      1.0000   1.5387   2.4313   3.2563   4.0360
 CSTAR, M/SEC               1221.4   1221.4   1221.4   1221.4   1221.4
 CF                         0.6563   1.0889   1.2779   1.3710   1.4312
 Ivac, M/SEC                1506.6   1705.9   1857.8   1939.7   1994.6
 Isp, M/SEC                  801.6   1330.1   1560.9   1674.6   1748.1

 MASS FRACTIONS

 CH4              0.07656  0.07304  0.06535  0.06085  0.05848  0.05693
 *CO              0.55915  0.50207  0.39487  0.32938  0.29311  0.26837
 *CO2             0.18511  0.21713  0.27819  0.31615  0.33717  0.35141
 C2H4             0.00001  0.00000  0.00000  0.00000  0.00000  0.00000
 C2H6             0.00002  0.00001  0.00000  0.00000  0.00000  0.00000
 *H2              0.05430  0.05401  0.05382  0.05372  0.05363  0.05355
 H2O              0.12486  0.13535  0.15431  0.16535  0.17148  0.17573
 C(gr)            0.00000  0.01838  0.05345  0.07454  0.08614  0.09402

  * THERMODYNAMIC PROPERTIES FITTED TO 20000.K

 NOTE. WEIGHT FRACTION OF FUEL IN TOTAL FUELS AND OF OXIDANT IN TOTAL OXIDANTS

              THEORETICAL ROCKET PERFORMANCE ASSUMING EQUILIBRIUM

           COMPOSITION DURING EXPANSION FROM INFINITE AREA COMBUSTOR

 Pin =   290.1 PSIA
 CASE = _______________

             REACTANT                    WT FRACTION      ENERGY      TEMP
                                          (SEE NOTE)     KJ/KG-MOL      K  
 FUEL        C2H5OH(L)                    1.0000000   -277750.443    296.000
 OXIDANT     O2                           1.0000000       -63.152    296.000

 O/F=    0.50000  %FUEL= 66.666667  R,EQ.RATIO= 2.869214  PHI,EQ.RATIO= 4.167556

                 CHAMBER   THROAT     EXIT     EXIT     EXIT     EXIT
 Pinf/P            1.0000   1.7327   5.0000   10.000   15.000   20.000
 P, BAR            20.000   11.543   4.0000   2.0000   1.3333   1.0000
 T, K             1162.36  1104.41  1008.81   954.29   924.65   904.48
 RHO, KG/CU M    3.2991 0 2.0395 0 7.9907-1 4.3097-1 2.9995-1 2.3184-1
 H, KJ/KG        -4020.05 -4341.88 -4905.87 -5239.95 -5424.11 -5550.08
 U, KJ/KG        -4626.27 -4907.86 -5406.46 -5704.02 -5868.63 -5981.42
 G, KJ/KG        -18643.4 -18236.2 -17597.5 -17245.7 -17056.9 -16929.1
 S, KJ/(KG)(K)    12.5808  12.5808  12.5808  12.5808  12.5808  12.5808

 M, (1/n)          15.942   16.224   16.756   17.098   17.295   17.435
 MW, MOL WT        15.942   15.841   15.602   15.465   15.394   15.347
 (dLV/dLP)t      -1.10930 -1.12076 -1.11691 -1.11166 -1.10789 -1.10500
 (dLV/dLT)p        2.3591   2.6979   2.7887   2.7852   2.7632   2.7399
 Cp, KJ/(KG)(K)   11.4514  15.4462  16.8919  17.2374  17.2265  17.1295
 GAMMAs            1.1684   1.1373   1.1255   1.1201   1.1176   1.1161
 SON VEL,M/SEC      841.6    802.3    750.6    721.0    704.8    693.8
 MACH NUMBER        0.000    1.000    1.773    2.167    2.378    2.521

 PERFORMANCE PARAMETERS

 Ae/At                      1.0000   1.5384   2.4306   3.2553   4.0346
 CSTAR, M/SEC               1222.3   1222.3   1222.3   1222.3   1222.3
 CF                         0.6564   1.0889   1.2779   1.3710   1.4311
 Ivac, M/SEC                1507.7   1707.1   1859.1   1941.0   1995.9
 Isp, M/SEC                  802.3   1331.0   1562.0   1675.7   1749.3

 MASS FRACTIONS

 CH4              0.07721  0.07402  0.06626  0.06171  0.05931  0.05774
 *CO              0.55817  0.50170  0.39461  0.32918  0.29293  0.26821
 *CO2             0.18486  0.21677  0.27764  0.31549  0.33644  0.35063
 C2H4             0.00001  0.00000  0.00000  0.00000  0.00000  0.00000
 C2H6             0.00002  0.00001  0.00000  0.00000  0.00000  0.00000
 *H2              0.05404  0.05371  0.05353  0.05343  0.05334  0.05326
 H2O              0.12569  0.13589  0.15493  0.16603  0.17219  0.17647
 C(gr)            0.00000  0.01790  0.05303  0.07417  0.08579  0.09369

  * THERMODYNAMIC PROPERTIES FITTED TO 20000.K

 NOTE. WEIGHT FRACTION OF FUEL IN TOTAL FUELS AND OF OXIDANT IN TOTAL OXIDANTS

              THEORETICAL ROCKET PERFORMANCE ASSUMING EQUILIBRIUM

           COMPOSITION DURING EXPANSION FROM INFINITE AREA COMBUSTOR

 Pin =   304.6 PSIA
 CASE = _______________

             REACTANT                    WT FRACTION      ENERGY      TEMP
                                          (SEE NOTE)     KJ/KG-MOL      K  
 FUEL        C2H5OH(L)                    1.0000000   -277750.443    296.000
 OXIDANT     O2                           1.0000000       -63.152    296.000

 O/F=    0.50000  %FUEL= 66.666667  R,EQ.RATIO= 2.869214  PHI,EQ.RATIO= 4.167556

                 CHAMBER   THROAT     EXIT     EXIT     EXIT     EXIT
 Pinf/P            1.0000   1.7328   5.0000   10.000   15.000   20.000
 P, BAR            21.000   12.119   4.2000   2.1000   1.4000   1.0500
 T, K             1165.88  1107.42  1011.33   956.55   926.77   906.50
 RHO, KG/CU M    3.4579 0 2.1382 0 8.3799-1 4.5202-1 3.1462-1 2.4318-1
 H, KJ/KG        -4020.05 -4342.42 -4907.12 -5241.59 -5425.95 -5552.05
 U, KJ/KG        -4627.36 -4909.21 -5408.32 -5706.18 -5870.94 -5983.83
 G, KJ/KG        -18658.0 -18246.4 -17604.7 -17251.3 -17061.9 -16933.5
 S, KJ/(KG)(K)    12.5553  12.5553  12.5553  12.5553  12.5553  12.5553

 M, (1/n)          15.962   16.245   16.777   17.119   17.317   17.456
 MW, MOL WT        15.962   15.871   15.628   15.489   15.417   15.371
 (dLV/dLP)t      -1.10957 -1.12101 -1.11716 -1.11192 -1.10816 -1.10527
 (dLV/dLT)p        2.3581   2.6959   2.7873   2.7843   2.7627   2.7396
 Cp, KJ/(KG)(K)   11.4065  15.3752  16.8207  17.1703  17.1629  17.0687
 GAMMAs            1.1687   1.1376   1.1258   1.1203   1.1178   1.1163
 SON VEL,M/SEC      842.5    803.0    751.2    721.4    705.3    694.2
 MACH NUMBER        0.000    1.000    1.773    2.167    2.378    2.521

 PERFORMANCE PARAMETERS

 Ae/At                      1.0000   1.5382   2.4301   3.2543   4.0333
 CSTAR, M/SEC               1223.1   1223.1   1223.1   1223.1   1223.1
 CF                         0.6565   1.0890   1.2779   1.3709   1.4311
 Ivac, M/SEC                1508.8   1708.3   1860.3   1942.2   1997.1
 Isp, M/SEC                  803.0   1332.0   1563.0   1676.8   1750.4

 MASS FRACTIONS

 CH4              0.07783  0.07496  0.06712  0.06253  0.06011  0.05853
 *CO              0.55723  0.50134  0.39435  0.32898  0.29276  0.26806
 *CO2             0.18463  0.21644  0.27712  0.31486  0.33575  0.34990
 C2H4             0.00001  0.00000  0.00000  0.00000  0.00000  0.00000
 C2H6             0.00002  0.00001  0.00000  0.00000  0.00000  0.00000
 *H2              0.05380  0.05341  0.05324  0.05315  0.05307  0.05298
 H2O              0.12648  0.13639  0.15552  0.16667  0.17286  0.17716
 C(gr)            0.00000  0.01745  0.05263  0.07381  0.08545  0.09336

  * THERMODYNAMIC PROPERTIES FITTED TO 20000.K

 NOTE. WEIGHT FRACTION OF FUEL IN TOTAL FUELS AND OF OXIDANT IN TOTAL OXIDANTS

              THEORETICAL ROCKET PERFORMANCE ASSUMING EQUILIBRIUM

           COMPOSITION DURING EXPANSION FROM INFINITE AREA COMBUSTOR

 Pin =   319.1 PSIA
 CASE = _______________

             REACTANT                    WT FRACTION      ENERGY      TEMP
                                          (SEE NOTE)     KJ/KG-MOL      K  
 FUEL        C2H5OH(L)                    1.0000000   -277750.443    296.000
 OXIDANT     O2                           1.0000000       -63.152    296.000

 O/F=    0.50000  %FUEL= 66.666667  R,EQ.RATIO= 2.869214  PHI,EQ.RATIO= 4.167556

                 CHAMBER   THROAT     EXIT     EXIT     EXIT     EXIT
 Pinf/P            1.0000   1.7329   5.0000   10.000   15.000   20.000
 P, BAR            22.000   12.695   4.4000   2.2000   1.4667   1.1000
 T, K             1169.25  1110.29  1013.74   958.71   928.80   908.45
 RHO, KG/CU M    3.6164 0 2.2368 0 8.7685-1 4.7304-1 3.2927-1 2.5452-1
 H, KJ/KG        -4020.05 -4342.93 -4908.31 -5243.16 -5427.71 -5553.93
 U, KJ/KG        -4628.39 -4910.50 -5410.11 -5708.24 -5873.14 -5986.12
 G, KJ/KG        -18672.0 -18256.1 -17611.6 -17256.8 -17066.6 -16937.8
 S, KJ/(KG)(K)    12.5311  12.5311  12.5311  12.5311  12.5311  12.5311

 M, (1/n)          15.981   16.265   16.797   17.139   17.337   17.477
 MW, MOL WT        15.981   15.899   15.653   15.513   15.440   15.393
 (dLV/dLP)t      -1.10981 -1.12124 -1.11741 -1.11217 -1.10842 -1.10553
 (dLV/dLT)p        2.3570   2.6940   2.7858   2.7834   2.7620   2.7391
 Cp, KJ/(KG)(K)   11.3634  15.3073  16.7526  17.1060  17.1018  17.0104
 GAMMAs            1.1690   1.1378   1.1260   1.1205   1.1180   1.1165
 SON VEL,M/SEC      843.3    803.6    751.7    721.9    705.7    694.6
 MACH NUMBER        0.000    1.000    1.773    2.167    2.378    2.521

 PERFORMANCE PARAMETERS

 Ae/At                      1.0000   1.5380   2.4295   3.2534   4.0321
 CSTAR, M/SEC               1223.9   1223.9   1223.9   1223.9   1223.9
 CF                         0.6566   1.0890   1.2779   1.3709   1.4310
 Ivac, M/SEC                1509.9   1709.3   1861.4   1943.4   1998.3
 Isp, M/SEC                  803.6   1332.9   1564.0   1677.9   1751.5

 MASS FRACTIONS

 CH4              0.07842  0.07586  0.06795  0.06332  0.06088  0.05928
 *CO              0.55633  0.50099  0.39411  0.32879  0.29260  0.26792
 *CO2             0.18442  0.21613  0.27664  0.31427  0.33510  0.34921
 C2H4             0.00001  0.00000  0.00000  0.00000  0.00000  0.00000
 C2H6             0.00002  0.00001  0.00000  0.00000  0.00000  0.00000
 *H2              0.05357  0.05313  0.05297  0.05288  0.05280  0.05272
 H2O              0.12723  0.13687  0.15607  0.16728  0.17350  0.17782
 C(gr)            0.00000  0.01701  0.05225  0.07346  0.08512  0.09305

  * THERMODYNAMIC PROPERTIES FITTED TO 20000.K

 NOTE. WEIGHT FRACTION OF FUEL IN TOTAL FUELS AND OF OXIDANT IN TOTAL OXIDANTS

              THEORETICAL ROCKET PERFORMANCE ASSUMING EQUILIBRIUM

           COMPOSITION DURING EXPANSION FROM INFINITE AREA COMBUSTOR

 Pin =   333.6 PSIA
 CASE = _______________

             REACTANT                    WT FRACTION      ENERGY      TEMP
                                          (SEE NOTE)     KJ/KG-MOL      K  
 FUEL        C2H5OH(L)                    1.0000000   -277750.443    296.000
 OXIDANT     O2                           1.0000000       -63.152    296.000

 O/F=    0.50000  %FUEL= 66.666667  R,EQ.RATIO= 2.869214  PHI,EQ.RATIO= 4.167556

                 CHAMBER   THROAT     EXIT     EXIT     EXIT     EXIT
 Pinf/P            1.0000   1.7331   5.0000   10.000   15.000   20.000
 P, BAR            23.000   13.271   4.6000   2.3000   1.5333   1.1500
 T, K             1172.48  1113.05  1016.06   960.78   930.74   910.31
 RHO, KG/CU M    3.7746 0 2.3352 0 9.1568-1 4.9404-1 3.4391-1 2.6585-1
 H, KJ/KG        -4020.05 -4343.42 -4909.46 -5244.66 -5429.39 -5555.73
 U, KJ/KG        -4629.39 -4911.73 -5411.82 -5710.22 -5875.25 -5988.32
 G, KJ/KG        -18685.5 -18265.5 -17618.3 -17262.1 -17071.1 -16941.9
 S, KJ/(KG)(K)    12.5080  12.5080  12.5080  12.5080  12.5080  12.5080

 M, (1/n)          15.999   16.284   16.817   17.159   17.357   17.497
 MW, MOL WT        15.999   15.926   15.678   15.536   15.462   15.414
 (dLV/dLP)t      -1.11004 -1.12145 -1.11763 -1.11241 -1.10865 -1.10577
 (dLV/dLT)p        2.3560   2.6920   2.7844   2.7824   2.7613   2.7387
 Cp, KJ/(KG)(K)   11.3219  15.2422  16.6872  17.0442  17.0432  16.9542
 GAMMAs            1.1692   1.1381   1.1262   1.1207   1.1181   1.1166
 SON VEL,M/SEC      844.1    804.2    752.2    722.3    706.1    695.0
 MACH NUMBER        0.000    1.000    1.773    2.167    2.378    2.522

 PERFORMANCE PARAMETERS

 Ae/At                      1.0000   1.5378   2.4290   3.2526   4.0309
 CSTAR, M/SEC               1224.7   1224.7   1224.7   1224.7   1224.7
 CF                         0.6567   1.0890   1.2779   1.3709   1.4310
 Ivac, M/SEC                1510.9   1710.4   1862.5   1944.5   1999.4
 Isp, M/SEC                  804.2   1333.7   1565.0   1678.9   1752.5

 MASS FRACTIONS

 CH4              0.07899  0.07672  0.06875  0.06408  0.06162  0.06000
 *CO              0.55547  0.50065  0.39387  0.32860  0.29244  0.26778
 *CO2             0.18421  0.21584  0.27618  0.31371  0.33448  0.34856
 C2H4             0.00001  0.00000  0.00000  0.00000  0.00000  0.00000
 C2H6             0.00002  0.00001  0.00000  0.00000  0.00000  0.00000
 *H2              0.05334  0.05287  0.05271  0.05263  0.05255  0.05247
 H2O              0.12796  0.13732  0.15660  0.16786  0.17411  0.17845
 C(gr)            0.00000  0.01658  0.05188  0.07312  0.08480  0.09275

  * THERMODYNAMIC PROPERTIES FITTED TO 20000.K

 NOTE. WEIGHT FRACTION OF FUEL IN TOTAL FUELS AND OF OXIDANT IN TOTAL OXIDANTS

              THEORETICAL ROCKET PERFORMANCE ASSUMING EQUILIBRIUM

           COMPOSITION DURING EXPANSION FROM INFINITE AREA COMBUSTOR

 Pin =   348.1 PSIA
 CASE = _______________

             REACTANT                    WT FRACTION      ENERGY      TEMP
                                          (SEE NOTE)     KJ/KG-MOL      K  
 FUEL        C2H5OH(L)                    1.0000000   -277750.443    296.000
 OXIDANT     O2                           1.0000000       -63.152    296.000

 O/F=    0.50000  %FUEL= 66.666667  R,EQ.RATIO= 2.869214  PHI,EQ.RATIO= 4.167556

                 CHAMBER   THROAT     EXIT     EXIT     EXIT     EXIT
 Pinf/P            1.0000   1.7332   5.0000   10.000   15.000   20.000
 P, BAR            24.000   13.848   4.8000   2.4000   1.6000   1.2000
 T, K             1175.60  1115.71  1018.28   962.77   932.61   912.10
 RHO, KG/CU M    3.9326 0 2.4336 0 9.5446-1 5.1501-1 3.5854-1 2.7716-1
 H, KJ/KG        -4020.05 -4343.89 -4910.55 -5246.10 -5431.00 -5557.46
 U, KJ/KG        -4630.33 -4912.90 -5413.45 -5712.11 -5877.26 -5990.42
 G, KJ/KG        -18698.4 -18274.5 -17624.7 -17267.1 -17075.5 -16945.8
 S, KJ/(KG)(K)    12.4859  12.4859  12.4859  12.4859  12.4859  12.4859

 M, (1/n)          16.016   16.303   16.835   17.178   17.376   17.516
 MW, MOL WT        16.016   15.953   15.701   15.558   15.483   15.435
 (dLV/dLP)t      -1.11026 -1.12165 -1.11784 -1.11263 -1.10888 -1.10599
 (dLV/dLT)p        2.3549   2.6901   2.7829   2.7814   2.7606   2.7381
 Cp, KJ/(KG)(K)   11.2819  15.1797  16.6243  16.9848  16.9866  16.9001
 GAMMAs            1.1695   1.1383   1.1264   1.1209   1.1183   1.1168
 SON VEL,M/SEC      844.8    804.8    752.6    722.7    706.4    695.4
 MACH NUMBER        0.000    1.000    1.773    2.167    2.378    2.522

 PERFORMANCE PARAMETERS

 Ae/At                      1.0000   1.5376   2.4285   3.2518   4.0298
 CSTAR, M/SEC               1225.4   1225.4   1225.4   1225.4   1225.4
 CF                         0.6567   1.0891   1.2779   1.3708   1.4310
 Ivac, M/SEC                1511.8   1711.4   1863.5   1945.5   2000.4
 Isp, M/SEC                  804.8   1334.5   1565.9   1679.9   1753.5

 MASS FRACTIONS

 CH4              0.07954  0.07755  0.06952  0.06481  0.06233  0.06070
 *CO              0.55463  0.50032  0.39365  0.32842  0.29229  0.26765
 *CO2             0.18402  0.21557  0.27574  0.31317  0.33389  0.34793
 C2H4             0.00001  0.00000  0.00000  0.00000  0.00000  0.00000
 C2H6             0.00002  0.00001  0.00000  0.00000  0.00000  0.00000
 *H2              0.05313  0.05261  0.05246  0.05238  0.05231  0.05223
 H2O              0.12865  0.13776  0.15710  0.16841  0.17468  0.17904
 C(gr)            0.00000  0.01618  0.05152  0.07280  0.08450  0.09245

  * THERMODYNAMIC PROPERTIES FITTED TO 20000.K

 NOTE. WEIGHT FRACTION OF FUEL IN TOTAL FUELS AND OF OXIDANT IN TOTAL OXIDANTS

              THEORETICAL ROCKET PERFORMANCE ASSUMING EQUILIBRIUM

           COMPOSITION DURING EXPANSION FROM INFINITE AREA COMBUSTOR

 Pin =   362.6 PSIA
 CASE = _______________

             REACTANT                    WT FRACTION      ENERGY      TEMP
                                          (SEE NOTE)     KJ/KG-MOL      K  
 FUEL        C2H5OH(L)                    1.0000000   -277750.443    296.000
 OXIDANT     O2                           1.0000000       -63.152    296.000

 O/F=    0.50000  %FUEL= 66.666667  R,EQ.RATIO= 2.869214  PHI,EQ.RATIO= 4.167556

                 CHAMBER   THROAT     EXIT     EXIT     EXIT     EXIT
 Pinf/P            1.0000   1.7333   5.0000   10.000   15.000   20.000
 P, BAR            25.000   14.424   5.0000   2.5000   1.6667   1.2500
 T, K             1178.59  1118.27  1020.42   964.69   934.41   913.82
 RHO, KG/CU M    4.0903 0 2.5318 0 9.9320-1 5.3597-1 3.7315-1 2.8847-1
 H, KJ/KG        -4020.05 -4344.34 -4911.60 -5247.48 -5432.55 -5559.11
 U, KJ/KG        -4631.25 -4914.03 -5415.02 -5713.92 -5879.20 -5992.44
 G, KJ/KG        -18710.9 -18283.2 -17630.9 -17272.0 -17079.7 -16949.6
 S, KJ/(KG)(K)    12.4647  12.4647  12.4647  12.4647  12.4647  12.4647

 M, (1/n)          16.033   16.321   16.853   17.196   17.394   17.534
 MW, MOL WT        16.033   15.978   15.724   15.579   15.504   15.455
 (dLV/dLP)t      -1.11046 -1.12184 -1.11804 -1.11283 -1.10908 -1.10620
 (dLV/dLT)p        2.3538   2.6881   2.7814   2.7803   2.7599   2.7376
 Cp, KJ/(KG)(K)   11.2432  15.1195  16.5638  16.9275  16.9321  16.8480
 GAMMAs            1.1697   1.1385   1.1266   1.1210   1.1185   1.1170
 SON VEL,M/SEC      845.5    805.4    753.1    723.1    706.8    695.7
 MACH NUMBER        0.000    1.000    1.773    2.167    2.378    2.522

 PERFORMANCE PARAMETERS

 Ae/At                      1.0000   1.5374   2.4280   3.2510   4.0287
 CSTAR, M/SEC               1226.1   1226.1   1226.1   1226.1   1226.1
 CF                         0.6568   1.0891   1.2779   1.3708   1.4309
 Ivac, M/SEC                1512.7   1712.3   1864.5   1946.5   2001.4
 Isp, M/SEC                  805.3   1335.3   1566.8   1680.8   1754.5

 MASS FRACTIONS

 CH4              0.08006  0.07835  0.07026  0.06552  0.06301  0.06137
 *CO              0.55382  0.50001  0.39343  0.32825  0.29215  0.26752
 *CO2             0.18384  0.21531  0.27533  0.31267  0.33334  0.34734
 C2H4             0.00001  0.00000  0.00000  0.00000  0.00000  0.00000
 C2H6             0.00002  0.00001  0.00000  0.00000  0.00000  0.00000
 *H2              0.05292  0.05236  0.05222  0.05215  0.05207  0.05199
 H2O              0.12932  0.13817  0.15758  0.16893  0.17523  0.17961
 C(gr)            0.00000  0.01578  0.05117  0.07248  0.08420  0.09217

  * THERMODYNAMIC PROPERTIES FITTED TO 20000.K

 NOTE. WEIGHT FRACTION OF FUEL IN TOTAL FUELS AND OF OXIDANT IN TOTAL OXIDANTS

              THEORETICAL ROCKET PERFORMANCE ASSUMING EQUILIBRIUM

           COMPOSITION DURING EXPANSION FROM INFINITE AREA COMBUSTOR

 Pin =   217.6 PSIA
 CASE = _______________

             REACTANT                    WT FRACTION      ENERGY      TEMP
                                          (SEE NOTE)     KJ/KG-MOL      K  
 FUEL        C2H5OH(L)                    1.0000000   -277750.443    296.000
 OXIDANT     O2                           1.0000000       -63.152    296.000

 O/F=    0.60000  %FUEL= 62.500000  R,EQ.RATIO= 2.566329  PHI,EQ.RATIO= 3.472963

                 CHAMBER   THROAT     EXIT     EXIT     EXIT     EXIT
 Pinf/P            1.0000   1.7582   5.0000   10.000   15.000   20.000
 P, BAR            15.000   8.5313   3.0000   1.5000   1.0000  0.75000
 T, K             1227.02  1141.96  1021.68   967.07   937.67   917.78
 RHO, KG/CU M    2.2452 0 1.3977 0 5.6987-1 3.0762-1 2.1412-1 1.6548-1
 H, KJ/KG        -3768.92 -4129.14 -4720.94 -5072.10 -5265.59 -5397.95
 U, KJ/KG        -4437.02 -4739.51 -5247.38 -5559.72 -5732.62 -5851.18
 G, KJ/KG        -19752.4 -19004.6 -18029.6 -17669.4 -17480.0 -17353.2
 S, KJ/(KG)(K)    13.0262  13.0262  13.0262  13.0262  13.0262  13.0262

 M, (1/n)          15.270   15.556   16.136   16.490   16.694   16.837
 MW, MOL WT        15.270   15.556   16.120   15.997   15.931   15.887
 (dLV/dLP)t      -1.05134 -1.06864 -1.11337 -1.11059 -1.10792 -1.10565
 (dLV/dLT)p        1.6000   1.8675   2.7812   2.8300   2.8339   2.8266
 Cp, KJ/(KG)(K)    6.3491   8.4187  17.5708  18.4909  18.7791  18.8741
 GAMMAs            1.2022   1.1803   1.1280   1.1208   1.1174   1.1153
 SON VEL,M/SEC      896.2    848.8    770.6    739.3    722.4    711.0
 MACH NUMBER        0.000    1.000    1.791    2.184    2.395    2.539

 PERFORMANCE PARAMETERS

 Ae/At                      1.0000   1.5087   2.3888   3.2024   3.9719
 CSTAR, M/SEC               1264.4   1264.4   1264.4   1264.4   1264.4
 CF                         0.6713   1.0914   1.2769   1.3684   1.4276
 Ivac, M/SEC                1567.9   1761.4   1916.5   2000.1   2056.1
 Isp, M/SEC                  848.8   1379.9   1614.4   1730.1   1805.0

 MASS FRACTIONS

 CH4              0.01882  0.02847  0.04650  0.04270  0.04062  0.03923
 *CO              0.62557  0.58742  0.51120  0.43893  0.39839  0.37049
 *CO2             0.15959  0.19307  0.26051  0.30519  0.33061  0.34821
 *H2              0.06236  0.06026  0.05642  0.05627  0.05620  0.05615
 H2O              0.13365  0.13078  0.12459  0.13450  0.13975  0.14329
 C(gr)            0.00000  0.00000  0.00078  0.02242  0.03442  0.04263

  * THERMODYNAMIC PROPERTIES FITTED TO 20000.K

 NOTE. WEIGHT FRACTION OF FUEL IN TOTAL FUELS AND OF OXIDANT IN TOTAL OXIDANTS

              THEORETICAL ROCKET PERFORMANCE ASSUMING EQUILIBRIUM

           COMPOSITION DURING EXPANSION FROM INFINITE AREA COMBUSTOR

 Pin =   232.1 PSIA
 CASE = _______________

             REACTANT                    WT FRACTION      ENERGY      TEMP
                                          (SEE NOTE)     KJ/KG-MOL      K  
 FUEL        C2H5OH(L)                    1.0000000   -277750.443    296.000
 OXIDANT     O2                           1.0000000       -63.152    296.000

 O/F=    0.60000  %FUEL= 62.500000  R,EQ.RATIO= 2.566329  PHI,EQ.RATIO= 3.472963

                 CHAMBER   THROAT     EXIT     EXIT     EXIT     EXIT
 Pinf/P            1.0000   1.7583   5.0000   10.000   15.000   20.000
 P, BAR            16.000   9.0999   3.2000   1.6000   1.0667  0.80000
 T, K             1231.12  1145.95  1025.03   970.06   940.48   920.46
 RHO, KG/CU M    2.3901 0 1.4878 0 6.0679-1 3.2761-1 2.2806-1 1.7626-1
 H, KJ/KG        -3768.92 -4129.89 -4722.88 -5074.62 -5268.41 -5400.95
 U, KJ/KG        -4438.36 -4741.52 -5250.24 -5563.01 -5736.12 -5854.82
 G, KJ/KG        -19762.6 -19017.1 -18039.2 -17676.8 -17486.3 -17358.8
 S, KJ/(KG)(K)    12.9911  12.9911  12.9911  12.9911  12.9911  12.9911

 M, (1/n)          15.291   15.578   16.161   16.515   16.719   16.862
 MW, MOL WT        15.291   15.578   16.150   16.026   15.958   15.913
 (dLV/dLP)t      -1.05273 -1.06975 -1.11385 -1.11107 -1.10839 -1.10612
 (dLV/dLT)p        1.6140   1.8783   2.7809   2.8301   2.8343   2.8272
 Cp, KJ/(KG)(K)    6.4196   8.4619  17.4832  18.4032  18.6930  18.7899
 GAMMAs            1.2018   1.1803   1.1283   1.1211   1.1177   1.1156
 SON VEL,M/SEC      897.0    849.7    771.4    740.0    723.0    711.6
 MACH NUMBER        0.000    1.000    1.791    2.184    2.395    2.539

 PERFORMANCE PARAMETERS

 Ae/At                      1.0000   1.5083   2.3878   3.2008   3.9697
 CSTAR, M/SEC               1265.7   1265.7   1265.7   1265.7   1265.7
 CF                         0.6713   1.0913   1.2768   1.3682   1.4274
 Ivac, M/SEC                1569.5   1763.1   1918.2   2001.8   2057.9
 Isp, M/SEC                  849.7   1381.3   1616.0   1731.8   1806.7

 MASS FRACTIONS

 CH4              0.01952  0.02920  0.04744  0.04358  0.04147  0.04005
 *CO              0.62449  0.58637  0.51055  0.43833  0.39782  0.36994
 *CO2             0.15937  0.19272  0.26000  0.30453  0.32987  0.34741
 *H2              0.06209  0.05997  0.05609  0.05594  0.05588  0.05583
 H2O              0.13453  0.13174  0.12543  0.13542  0.14073  0.14430
 C(gr)            0.00000  0.00000  0.00050  0.02220  0.03423  0.04246

  * THERMODYNAMIC PROPERTIES FITTED TO 20000.K

 NOTE. WEIGHT FRACTION OF FUEL IN TOTAL FUELS AND OF OXIDANT IN TOTAL OXIDANTS

              THEORETICAL ROCKET PERFORMANCE ASSUMING EQUILIBRIUM

           COMPOSITION DURING EXPANSION FROM INFINITE AREA COMBUSTOR

 Pin =   246.6 PSIA
 CASE = _______________

             REACTANT                    WT FRACTION      ENERGY      TEMP
                                          (SEE NOTE)     KJ/KG-MOL      K  
 FUEL        C2H5OH(L)                    1.0000000   -277750.443    296.000
 OXIDANT     O2                           1.0000000       -63.152    296.000

 O/F=    0.60000  %FUEL= 62.500000  R,EQ.RATIO= 2.566329  PHI,EQ.RATIO= 3.472963

                 CHAMBER   THROAT     EXIT     EXIT     EXIT     EXIT
 Pinf/P            1.0000   1.7583   5.0000   10.000   15.000   20.000
 P, BAR            17.000   9.6684   3.4000   1.7000   1.1333  0.85000
 T, K             1235.03  1149.73  1028.19   972.88   943.12   922.99
 RHO, KG/CU M    2.5346 0 1.5777 0 6.4366-1 3.4757-1 2.4198-1 1.8703-1
 H, KJ/KG        -3768.92 -4130.60 -4724.70 -5077.00 -5271.06 -5403.78
 U, KJ/KG        -4439.63 -4743.42 -5252.93 -5566.10 -5739.42 -5858.25
 G, KJ/KG        -19772.6 -19029.0 -18048.2 -17683.8 -17492.2 -17364.1
 S, KJ/(KG)(K)    12.9582  12.9582  12.9582  12.9582  12.9582  12.9582

 M, (1/n)          15.310   15.599   16.184   16.538   16.743   16.886
 MW, MOL WT        15.310   15.599   16.179   16.053   15.984   15.938
 (dLV/dLP)t      -1.05402 -1.07079 -1.11430 -1.11151 -1.10883 -1.10655
 (dLV/dLT)p        1.6270   1.8883   2.7806   2.8301   2.8345   2.8276
 Cp, KJ/(KG)(K)    6.4837   8.5000  17.4005  18.3202  18.6116  18.7103
 GAMMAs            1.2015   1.1804   1.1286   1.1214   1.1180   1.1159
 SON VEL,M/SEC      897.7    850.5    772.1    740.6    723.6    712.1
 MACH NUMBER        0.000    1.000    1.791    2.184    2.395    2.539

 PERFORMANCE PARAMETERS

 Ae/At                      1.0000   1.5078   2.3868   3.1993   3.9676
 CSTAR, M/SEC               1266.9   1266.9   1266.9   1266.9   1266.9
 CF                         0.6713   1.0913   1.2767   1.3681   1.4273
 Ivac, M/SEC                1571.0   1764.7   1919.8   2003.5   2059.6
 Isp, M/SEC                  850.5   1382.6   1617.5   1733.3   1808.2

 MASS FRACTIONS

 CH4              0.02019  0.02989  0.04833  0.04442  0.04228  0.04084
 *CO              0.62346  0.58536  0.50993  0.43776  0.39729  0.36942
 *CO2             0.15916  0.19239  0.25952  0.30392  0.32918  0.34666
 *H2              0.06183  0.05969  0.05578  0.05563  0.05557  0.05553
 H2O              0.13536  0.13266  0.12621  0.13628  0.14164  0.14524
 C(gr)            0.00000  0.00000  0.00022  0.02198  0.03404  0.04230

  * THERMODYNAMIC PROPERTIES FITTED TO 20000.K

 NOTE. WEIGHT FRACTION OF FUEL IN TOTAL FUELS AND OF OXIDANT IN TOTAL OXIDANTS

              THEORETICAL ROCKET PERFORMANCE ASSUMING EQUILIBRIUM

           COMPOSITION DURING EXPANSION FROM INFINITE AREA COMBUSTOR

 Pin =   261.1 PSIA
 CASE = _______________

             REACTANT                    WT FRACTION      ENERGY      TEMP
                                          (SEE NOTE)     KJ/KG-MOL      K  
 FUEL        C2H5OH(L)                    1.0000000   -277750.443    296.000
 OXIDANT     O2                           1.0000000       -63.152    296.000

 O/F=    0.60000  %FUEL= 62.500000  R,EQ.RATIO= 2.566329  PHI,EQ.RATIO= 3.472963

                 CHAMBER   THROAT     EXIT     EXIT     EXIT     EXIT
 Pinf/P            1.0000   1.7583   5.0000   10.000   15.000   20.000
 P, BAR            18.000   10.237   3.6000   1.8000   1.2000  0.90000
 T, K             1238.76  1153.32  1031.21   975.56   945.64   925.39
 RHO, KG/CU M    2.6789 0 1.6674 0 6.8044-1 3.6750-1 2.5588-1 1.9779-1
 H, KJ/KG        -3768.92 -4131.28 -4726.43 -5079.24 -5273.57 -5406.46
 U, KJ/KG        -4440.84 -4745.23 -5255.50 -5569.03 -5742.54 -5861.50
 G, KJ/KG        -19782.5 -19040.5 -18057.1 -17690.5 -17498.0 -17369.2
 S, KJ/(KG)(K)    12.9272  12.9272  12.9272  12.9272  12.9272  12.9272

 M, (1/n)          15.329   15.619   16.206   16.561   16.765   16.909
 MW, MOL WT        15.329   15.619   16.206   16.078   16.009   15.962
 (dLV/dLP)t      -1.05523 -1.07175 -1.09392 -1.11192 -1.10924 -1.10696
 (dLV/dLT)p        1.6390   1.8975   2.3250   2.8300   2.8346   2.8279
 Cp, KJ/(KG)(K)    6.5421   8.5340  12.2095  18.2415  18.5344  18.6347
 GAMMAs            1.2012   1.1804   1.1537   1.1217   1.1183   1.1161
 SON VEL,M/SEC      898.4    851.3    781.3    741.2    724.2    712.7
 MACH NUMBER        0.000    1.000    1.771    2.184    2.395    2.539

 PERFORMANCE PARAMETERS

 Ae/At                      1.0000   1.5075   2.3859   3.1978   3.9656
 CSTAR, M/SEC               1268.1   1268.1   1268.1   1268.1   1268.1
 CF                         0.6713   1.0913   1.2766   1.3680   1.4271
 Ivac, M/SEC                1572.5   1766.2   1921.4   2005.1   2061.2
 Isp, M/SEC                  851.3   1383.8   1618.8   1734.7   1809.7

 MASS FRACTIONS

 CH4              0.02082  0.03055  0.04915  0.04522  0.04305  0.04159
 *CO              0.62248  0.58440  0.50930  0.43723  0.39678  0.36894
 *CO2             0.15896  0.19209  0.25908  0.30334  0.32853  0.34596
 *H2              0.06158  0.05943  0.05548  0.05534  0.05528  0.05524
 H2O              0.13616  0.13352  0.12699  0.13710  0.14249  0.14613
 C(gr)            0.00000  0.00000  0.00000  0.02176  0.03386  0.04214

  * THERMODYNAMIC PROPERTIES FITTED TO 20000.K

 NOTE. WEIGHT FRACTION OF FUEL IN TOTAL FUELS AND OF OXIDANT IN TOTAL OXIDANTS

              THEORETICAL ROCKET PERFORMANCE ASSUMING EQUILIBRIUM

           COMPOSITION DURING EXPANSION FROM INFINITE AREA COMBUSTOR

 Pin =   275.6 PSIA
 CASE = _______________

             REACTANT                    WT FRACTION      ENERGY      TEMP
                                          (SEE NOTE)     KJ/KG-MOL      K  
 FUEL        C2H5OH(L)                    1.0000000   -277750.443    296.000
 OXIDANT     O2                           1.0000000       -63.152    296.000

 O/F=    0.60000  %FUEL= 62.500000  R,EQ.RATIO= 2.566329  PHI,EQ.RATIO= 3.472963

                 CHAMBER   THROAT     EXIT     EXIT     EXIT     EXIT
 Pinf/P            1.0000   1.7584   5.0000   10.000   15.000   20.000
 P, BAR            19.000   10.805   3.8000   1.9000   1.2667  0.95000
 T, K             1242.33  1156.75  1034.19   978.11   948.02   927.68
 RHO, KG/CU M    2.8229 0 1.7569 0 7.1708-1 3.8741-1 2.6976-1 2.0853-1
 H, KJ/KG        -3768.92 -4131.92 -4728.07 -5081.37 -5275.95 -5409.00
 U, KJ/KG        -4441.99 -4746.94 -5257.99 -5571.81 -5745.50 -5864.57
 G, KJ/KG        -19792.3 -19051.5 -18066.9 -17696.9 -17503.4 -17374.0
 S, KJ/(KG)(K)    12.8979  12.8979  12.8979  12.8979  12.8979  12.8979

 M, (1/n)          15.346   15.638   16.226   16.582   16.787   16.931
 MW, MOL WT        15.346   15.638   16.226   16.103   16.032   15.985
 (dLV/dLP)t      -1.05637 -1.07266 -1.09447 -1.11230 -1.10962 -1.10734
 (dLV/dLT)p        1.6502   1.9060   2.3287   2.8298   2.8347   2.8281
 Cp, KJ/(KG)(K)    6.5955   8.5642  12.1949  18.1666  18.4609  18.5628
 GAMMAs            1.2010   1.1805   1.1539   1.1220   1.1185   1.1164
 SON VEL,M/SEC      899.1    852.1    782.0    741.8    724.7    713.2
 MACH NUMBER        0.000    1.000    1.771    2.184    2.396    2.540

 PERFORMANCE PARAMETERS

 Ae/At                      1.0000   1.5073   2.3850   3.1965   3.9637
 CSTAR, M/SEC               1269.2   1269.2   1269.2   1269.2   1269.2
 CF                         0.6713   1.0913   1.2765   1.3679   1.4270
 Ivac, M/SEC                1573.9   1767.6   1922.9   2006.6   2062.7
 Isp, M/SEC                  852.1   1385.0   1620.2   1736.1   1811.1

 MASS FRACTIONS

 CH4              0.02143  0.03118  0.04978  0.04599  0.04379  0.04231
 *CO              0.62153  0.58348  0.50848  0.43673  0.39631  0.36848
 *CO2             0.15878  0.19181  0.25865  0.30280  0.32792  0.34530
 *H2              0.06134  0.05918  0.05523  0.05506  0.05501  0.05497
 H2O              0.13691  0.13435  0.12786  0.13786  0.14330  0.14697
 C(gr)            0.00000  0.00000  0.00000  0.02155  0.03368  0.04197

  * THERMODYNAMIC PROPERTIES FITTED TO 20000.K

 NOTE. WEIGHT FRACTION OF FUEL IN TOTAL FUELS AND OF OXIDANT IN TOTAL OXIDANTS

              THEORETICAL ROCKET PERFORMANCE ASSUMING EQUILIBRIUM

           COMPOSITION DURING EXPANSION FROM INFINITE AREA COMBUSTOR

 Pin =   290.1 PSIA
 CASE = _______________

             REACTANT                    WT FRACTION      ENERGY      TEMP
                                          (SEE NOTE)     KJ/KG-MOL      K  
 FUEL        C2H5OH(L)                    1.0000000   -277750.443    296.000
 OXIDANT     O2                           1.0000000       -63.152    296.000

 O/F=    0.60000  %FUEL= 62.500000  R,EQ.RATIO= 2.566329  PHI,EQ.RATIO= 3.472963

                 CHAMBER   THROAT     EXIT     EXIT     EXIT     EXIT
 Pinf/P            1.0000   1.7584   5.0000   10.000   15.000   20.000
 P, BAR            20.000   11.374   4.0000   2.0000   1.3333   1.0000
 T, K             1245.75  1160.03  1037.03   980.54   950.30   929.85
 RHO, KG/CU M    2.9666 0 1.8463 0 7.5366-1 4.0729-1 2.8363-1 2.1926-1
 H, KJ/KG        -3768.92 -4132.54 -4729.63 -5083.40 -5278.21 -5411.42
 U, KJ/KG        -4443.09 -4748.58 -5260.37 -5574.45 -5748.31 -5867.49
 G, KJ/KG        -19801.8 -19062.2 -18076.3 -17703.0 -17508.7 -17378.7
 S, KJ/(KG)(K)    12.8701  12.8701  12.8701  12.8701  12.8701  12.8701

 M, (1/n)          15.364   15.657   16.246   16.603   16.808   16.952
 MW, MOL WT        15.364   15.657   16.246   16.127   16.055   16.007
 (dLV/dLP)t      -1.05744 -1.07351 -1.09498 -1.11266 -1.10997 -1.10769
 (dLV/dLT)p        1.6607   1.9139   2.3321   2.8295   2.8346   2.8282
 Cp, KJ/(KG)(K)    6.6445   8.5913  12.1798  18.0952  18.3907  18.4941
 GAMMAs            1.2007   1.1805   1.1541   1.1222   1.1188   1.1166
 SON VEL,M/SEC      899.7    852.8    782.7    742.3    725.2    713.6
 MACH NUMBER        0.000    1.000    1.771    2.184    2.396    2.540

 PERFORMANCE PARAMETERS

 Ae/At                      1.0000   1.5071   2.3842   3.1951   3.9619
 CSTAR, M/SEC               1270.3   1270.3   1270.3   1270.3   1270.3
 CF                         0.6714   1.0912   1.2764   1.3678   1.4268
 Ivac, M/SEC                1575.2   1769.0   1924.3   2008.0   2064.1
 Isp, M/SEC                  852.8   1386.2   1621.4   1737.4   1812.5

 MASS FRACTIONS

 CH4              0.02201  0.03178  0.05037  0.04672  0.04450  0.04300
 *CO              0.62062  0.58260  0.50770  0.43625  0.39586  0.36805
 *CO2             0.15861  0.19154  0.25824  0.30229  0.32734  0.34467
 *H2              0.06111  0.05894  0.05499  0.05480  0.05474  0.05471
 H2O              0.13764  0.13513  0.12870  0.13859  0.14406  0.14776
 C(gr)            0.00000  0.00000  0.00000  0.02135  0.03350  0.04181

  * THERMODYNAMIC PROPERTIES FITTED TO 20000.K

 NOTE. WEIGHT FRACTION OF FUEL IN TOTAL FUELS AND OF OXIDANT IN TOTAL OXIDANTS

              THEORETICAL ROCKET PERFORMANCE ASSUMING EQUILIBRIUM

           COMPOSITION DURING EXPANSION FROM INFINITE AREA COMBUSTOR

 Pin =   304.6 PSIA
 CASE = _______________

             REACTANT                    WT FRACTION      ENERGY      TEMP
                                          (SEE NOTE)     KJ/KG-MOL      K  
 FUEL        C2H5OH(L)                    1.0000000   -277750.443    296.000
 OXIDANT     O2                           1.0000000       -63.152    296.000

 O/F=    0.60000  %FUEL= 62.500000  R,EQ.RATIO= 2.566329  PHI,EQ.RATIO= 3.472963

                 CHAMBER   THROAT     EXIT     EXIT     EXIT     EXIT
 Pinf/P            1.0000   1.7585   5.0000   10.000   15.000   20.000
 P, BAR            21.000   11.942   4.2000   2.1000   1.4000   1.0500
 T, K             1249.03  1163.16  1039.75   982.86   952.48   931.93
 RHO, KG/CU M    3.1101 0 1.9355 0 7.9019-1 4.2715-1 2.9748-1 2.2998-1
 H, KJ/KG        -3768.92 -4133.13 -4731.12 -5085.34 -5280.37 -5413.72
 U, KJ/KG        -4444.15 -4750.14 -5262.63 -5576.97 -5750.99 -5870.28
 G, KJ/KG        -19811.1 -19072.4 -18085.4 -17708.8 -17513.7 -17383.2
 S, KJ/(KG)(K)    12.8437  12.8437  12.8437  12.8437  12.8437  12.8437

 M, (1/n)          15.380   15.674   16.265   16.622   16.827   16.972
 MW, MOL WT        15.380   15.674   16.265   16.150   16.077   16.028
 (dLV/dLP)t      -1.05846 -1.07431 -1.09546 -1.11300 -1.11031 -1.10803
 (dLV/dLT)p        1.6705   1.9213   2.3353   2.8292   2.8345   2.8283
 Cp, KJ/(KG)(K)    6.6897   8.6157  12.1643  18.0269  18.3237  18.4285
 GAMMAs            1.2006   1.1806   1.1544   1.1225   1.1190   1.1168
 SON VEL,M/SEC      900.4    853.5    783.3    742.9    725.7    714.1
 MACH NUMBER        0.000    1.000    1.771    2.184    2.396    2.540

 PERFORMANCE PARAMETERS

 Ae/At                      1.0000   1.5070   2.3834   3.1939   3.9602
 CSTAR, M/SEC               1271.3   1271.3   1271.3   1271.3   1271.3
 CF                         0.6714   1.0912   1.2764   1.3677   1.4267
 Ivac, M/SEC                1576.4   1770.4   1925.6   2009.3   2065.5
 Isp, M/SEC                  853.5   1387.2   1622.6   1738.6   1813.7

 MASS FRACTIONS

 CH4              0.02257  0.03236  0.05094  0.04742  0.04517  0.04366
 *CO              0.61975  0.58176  0.50694  0.43580  0.39543  0.36763
 *CO2             0.15844  0.19129  0.25786  0.30181  0.32679  0.34408
 *H2              0.06089  0.05871  0.05475  0.05454  0.05449  0.05446
 H2O              0.13833  0.13588  0.12950  0.13927  0.14479  0.14851
 C(gr)            0.00000  0.00000  0.00000  0.02115  0.03333  0.04166

  * THERMODYNAMIC PROPERTIES FITTED TO 20000.K

 NOTE. WEIGHT FRACTION OF FUEL IN TOTAL FUELS AND OF OXIDANT IN TOTAL OXIDANTS

              THEORETICAL ROCKET PERFORMANCE ASSUMING EQUILIBRIUM

           COMPOSITION DURING EXPANSION FROM INFINITE AREA COMBUSTOR

 Pin =   319.1 PSIA
 CASE = _______________

             REACTANT                    WT FRACTION      ENERGY      TEMP
                                          (SEE NOTE)     KJ/KG-MOL      K  
 FUEL        C2H5OH(L)                    1.0000000   -277750.443    296.000
 OXIDANT     O2                           1.0000000       -63.152    296.000

 O/F=    0.60000  %FUEL= 62.500000  R,EQ.RATIO= 2.566329  PHI,EQ.RATIO= 3.472963

                 CHAMBER   THROAT     EXIT     EXIT     EXIT     EXIT
 Pinf/P            1.0000   1.7585   5.0000   10.000   15.000   20.000
 P, BAR            22.000   12.510   4.4000   2.2000   1.4667   1.1000
 T, K             1252.20  1166.18  1042.35   985.08   954.56   933.92
 RHO, KG/CU M    3.2533 0 2.0245 0 8.2667-1 4.4699-1 3.1131-1 2.4069-1
 H, KJ/KG        -3768.92 -4133.70 -4732.54 -5087.19 -5282.43 -5415.92
 U, KJ/KG        -4445.16 -4751.64 -5264.80 -5579.37 -5753.55 -5872.94
 G, KJ/KG        -19820.3 -19082.4 -18094.0 -17714.5 -17518.5 -17387.5
 S, KJ/(KG)(K)    12.8186  12.8186  12.8186  12.8186  12.8186  12.8186

 M, (1/n)          15.396   15.691   16.283   16.641   16.846   16.991
 MW, MOL WT        15.396   15.691   16.283   16.172   16.098   16.049
 (dLV/dLP)t      -1.05942 -1.07506 -1.09591 -1.11331 -1.11063 -1.10834
 (dLV/dLT)p        1.6797   1.9281   2.3381   2.8288   2.8343   2.8282
 Cp, KJ/(KG)(K)    6.7315   8.6376  12.1487  17.9615  18.2594  18.3656
 GAMMAs            1.2004   1.1806   1.1546   1.1227   1.1192   1.1171
 SON VEL,M/SEC      901.0    854.1    783.9    743.4    726.1    714.5
 MACH NUMBER        0.000    1.000    1.771    2.184    2.396    2.540

 PERFORMANCE PARAMETERS

 Ae/At                      1.0000   1.5068   2.3826   3.1927   3.9586
 CSTAR, M/SEC               1272.2   1272.2   1272.2   1272.2   1272.2
 CF                         0.6714   1.0912   1.2763   1.3676   1.4266
 Ivac, M/SEC                1577.6   1771.7   1926.9   2010.6   2066.7
 Isp, M/SEC                  854.1   1388.3   1623.7   1739.8   1814.9

 MASS FRACTIONS

 CH4              0.02311  0.03291  0.05149  0.04810  0.04583  0.04430
 *CO              0.61890  0.58094  0.50622  0.43536  0.39502  0.36724
 *CO2             0.15829  0.19105  0.25749  0.30136  0.32628  0.34352
 *H2              0.06068  0.05849  0.05453  0.05430  0.05425  0.05422
 H2O              0.13900  0.13660  0.13026  0.13992  0.14547  0.14922
 C(gr)            0.00000  0.00000  0.00000  0.02095  0.03316  0.04150

  * THERMODYNAMIC PROPERTIES FITTED TO 20000.K

 NOTE. WEIGHT FRACTION OF FUEL IN TOTAL FUELS AND OF OXIDANT IN TOTAL OXIDANTS

              THEORETICAL ROCKET PERFORMANCE ASSUMING EQUILIBRIUM

           COMPOSITION DURING EXPANSION FROM INFINITE AREA COMBUSTOR

 Pin =   333.6 PSIA
 CASE = _______________

             REACTANT                    WT FRACTION      ENERGY      TEMP
                                          (SEE NOTE)     KJ/KG-MOL      K  
 FUEL        C2H5OH(L)                    1.0000000   -277750.443    296.000
 OXIDANT     O2                           1.0000000       -63.152    296.000

 O/F=    0.60000  %FUEL= 62.500000  R,EQ.RATIO= 2.566329  PHI,EQ.RATIO= 3.472963

                 CHAMBER   THROAT     EXIT     EXIT     EXIT     EXIT
 Pinf/P            1.0000   1.7586   5.0000   10.000   15.000   20.000
 P, BAR            23.000   13.079   4.6000   2.3000   1.5333   1.1500
 T, K             1255.24  1169.07  1044.85   987.21   956.56   935.84
 RHO, KG/CU M    3.3963 0 2.1135 0 8.6310-1 4.6680-1 3.2514-1 2.5139-1
 H, KJ/KG        -3768.92 -4134.25 -4733.91 -5088.96 -5284.41 -5418.03
 U, KJ/KG        -4446.13 -4753.08 -5266.87 -5581.67 -5756.00 -5875.49
 G, KJ/KG        -19829.2 -19092.0 -18102.4 -17719.9 -17523.2 -17391.6
 S, KJ/(KG)(K)    12.7946  12.7946  12.7946  12.7946  12.7946  12.7946

 M, (1/n)          15.411   15.708   16.300   16.659   16.865   17.009
 MW, MOL WT        15.411   15.708   16.300   16.193   16.118   16.068
 (dLV/dLP)t      -1.06033 -1.07578 -1.09633 -1.11361 -1.11092 -1.10864
 (dLV/dLT)p        1.6884   1.9346   2.3407   2.8284   2.8341   2.8281
 Cp, KJ/(KG)(K)    6.7701   8.6573  12.1329  17.8987  18.1977  18.3051
 GAMMAs            1.2002   1.1807   1.1548   1.1229   1.1194   1.1173
 SON VEL,M/SEC      901.6    854.8    784.5    743.8    726.6    714.9
 MACH NUMBER        0.000    1.000    1.771    2.184    2.396    2.540

 PERFORMANCE PARAMETERS

 Ae/At                      1.0000   1.5067   2.3818   3.1915   3.9570
 CSTAR, M/SEC               1273.1   1273.1   1273.1   1273.1   1273.1
 CF                         0.6714   1.0912   1.2762   1.3675   1.4265
 Ivac, M/SEC                1578.7   1772.9   1928.1   2011.9   2068.0
 Isp, M/SEC                  854.8   1389.2   1624.8   1741.0   1816.1

 MASS FRACTIONS

 CH4              0.02363  0.03344  0.05201  0.04875  0.04646  0.04491
 *CO              0.61808  0.58016  0.50553  0.43495  0.39462  0.36687
 *CO2             0.15815  0.19083  0.25715  0.30093  0.32578  0.34299
 *H2              0.06048  0.05828  0.05432  0.05407  0.05402  0.05399
 H2O              0.13964  0.13729  0.13099  0.14055  0.14613  0.14990
 C(gr)            0.00000  0.00000  0.00000  0.02076  0.03299  0.04135

  * THERMODYNAMIC PROPERTIES FITTED TO 20000.K

 NOTE. WEIGHT FRACTION OF FUEL IN TOTAL FUELS AND OF OXIDANT IN TOTAL OXIDANTS

              THEORETICAL ROCKET PERFORMANCE ASSUMING EQUILIBRIUM

           COMPOSITION DURING EXPANSION FROM INFINITE AREA COMBUSTOR

 Pin =   348.1 PSIA
 CASE = _______________

             REACTANT                    WT FRACTION      ENERGY      TEMP
                                          (SEE NOTE)     KJ/KG-MOL      K  
 FUEL        C2H5OH(L)                    1.0000000   -277750.443    296.000
 OXIDANT     O2                           1.0000000       -63.152    296.000

 O/F=    0.60000  %FUEL= 62.500000  R,EQ.RATIO= 2.566329  PHI,EQ.RATIO= 3.472963

                 CHAMBER   THROAT     EXIT     EXIT     EXIT     EXIT
 Pinf/P            1.0000   1.7586   5.0000   10.000   15.000   20.000
 P, BAR            24.000   13.647   4.8000   2.4000   1.6000   1.2000
 T, K             1258.19  1171.86  1047.26   989.27   958.48   937.67
 RHO, KG/CU M    3.5391 0 2.2022 0 8.9948-1 4.8660-1 3.3895-1 2.6208-1
 H, KJ/KG        -3768.92 -4134.77 -4735.22 -5090.66 -5286.30 -5420.05
 U, KJ/KG        -4447.06 -4754.45 -5268.86 -5583.88 -5758.35 -5877.93
 G, KJ/KG        -19838.0 -19101.3 -18110.4 -17725.2 -17527.7 -17395.7
 S, KJ/(KG)(K)    12.7716  12.7716  12.7716  12.7716  12.7716  12.7716

 M, (1/n)          15.426   15.723   16.317   16.677   16.882   17.027
 MW, MOL WT        15.426   15.723   16.317   16.213   16.138   16.087
 (dLV/dLP)t      -1.06120 -1.07646 -1.09673 -1.11390 -1.11121 -1.10892
 (dLV/dLT)p        1.6966   1.9406   2.3431   2.8280   2.8338   2.8280
 Cp, KJ/(KG)(K)    6.8060   8.6751  12.1170  17.8383  18.1383  18.2470
 GAMMAs            1.2001   1.1808   1.1549   1.1231   1.1196   1.1175
 SON VEL,M/SEC      902.1    855.4    785.1    744.3    727.0    715.3
 MACH NUMBER        0.000    1.000    1.771    2.185    2.396    2.540

 PERFORMANCE PARAMETERS

 Ae/At                      1.0000   1.5065   2.3811   3.1904   3.9555
 CSTAR, M/SEC               1274.0   1274.0   1274.0   1274.0   1274.0
 CF                         0.6714   1.0912   1.2762   1.3674   1.4264
 Ivac, M/SEC                1579.8   1774.0   1929.2   2013.0   2069.2
 Isp, M/SEC                  855.4   1390.2   1625.9   1742.1   1817.2

 MASS FRACTIONS

 CH4              0.02413  0.03395  0.05252  0.04938  0.04706  0.04551
 *CO              0.61729  0.57940  0.50486  0.43455  0.39425  0.36651
 *CO2             0.15801  0.19061  0.25682  0.30052  0.32532  0.34248
 *H2              0.06029  0.05808  0.05411  0.05384  0.05380  0.05376
 H2O              0.14026  0.13795  0.13169  0.14114  0.14675  0.15054
 C(gr)            0.00000  0.00000  0.00000  0.02057  0.03282  0.04120

  * THERMODYNAMIC PROPERTIES FITTED TO 20000.K

 NOTE. WEIGHT FRACTION OF FUEL IN TOTAL FUELS AND OF OXIDANT IN TOTAL OXIDANTS

              THEORETICAL ROCKET PERFORMANCE ASSUMING EQUILIBRIUM

           COMPOSITION DURING EXPANSION FROM INFINITE AREA COMBUSTOR

 Pin =   362.6 PSIA
 CASE = _______________

             REACTANT                    WT FRACTION      ENERGY      TEMP
                                          (SEE NOTE)     KJ/KG-MOL      K  
 FUEL        C2H5OH(L)                    1.0000000   -277750.443    296.000
 OXIDANT     O2                           1.0000000       -63.152    296.000

 O/F=    0.60000  %FUEL= 62.500000  R,EQ.RATIO= 2.566329  PHI,EQ.RATIO= 3.472963

                 CHAMBER   THROAT     EXIT     EXIT     EXIT     EXIT
 Pinf/P            1.0000   1.7587   5.0000   10.000   15.000   20.000
 P, BAR            25.000   14.215   5.0000   2.5000   1.6667   1.2500
 T, K             1261.03  1174.55  1049.57   991.24   960.33   939.44
 RHO, KG/CU M    3.6817 0 2.2909 0 9.3581-1 5.0637-1 3.5274-1 2.7276-1
 H, KJ/KG        -3768.92 -4135.28 -4736.48 -5092.29 -5288.12 -5421.99
 U, KJ/KG        -4447.96 -4755.78 -5270.77 -5586.00 -5760.61 -5880.27
 G, KJ/KG        -19846.6 -19110.3 -18118.1 -17730.2 -17532.0 -17399.5
 S, KJ/(KG)(K)    12.7496  12.7496  12.7496  12.7496  12.7496  12.7496

 M, (1/n)          15.441   15.739   16.333   16.693   16.899   17.044
 MW, MOL WT        15.441   15.739   16.333   16.233   16.157   16.106
 (dLV/dLP)t      -1.06202 -1.07710 -1.09711 -1.11416 -1.11147 -1.10919
 (dLV/dLT)p        1.7043   1.9463   2.3454   2.8275   2.8335   2.8278
 Cp, KJ/(KG)(K)    6.8394   8.6913  12.1010  17.7801  18.0811  18.1910
 GAMMAs            1.2000   1.1808   1.1551   1.1233   1.1198   1.1176
 SON VEL,M/SEC      902.7    856.0    785.6    744.7    727.4    715.7
 MACH NUMBER        0.000    1.000    1.771    2.185    2.396    2.541

 PERFORMANCE PARAMETERS

 Ae/At                      1.0000   1.5064   2.3804   3.1893   3.9540
 CSTAR, M/SEC               1274.9   1274.9   1274.9   1274.9   1274.9
 CF                         0.6714   1.0912   1.2761   1.3673   1.4263
 Ivac, M/SEC                1580.9   1775.2   1930.4   2014.2   2070.3
 Isp, M/SEC                  856.0   1391.1   1626.9   1743.1   1818.3

 MASS FRACTIONS

 CH4              0.02462  0.03445  0.05300  0.04999  0.04765  0.04608
 *CO              0.61653  0.57866  0.50421  0.43416  0.39389  0.36616
 *CO2             0.15789  0.19041  0.25651  0.30012  0.32487  0.34199
 *H2              0.06010  0.05788  0.05391  0.05363  0.05358  0.05355
 H2O              0.14086  0.13859  0.13236  0.14170  0.14735  0.15116
 C(gr)            0.00000  0.00000  0.00000  0.02039  0.03266  0.04105

  * THERMODYNAMIC PROPERTIES FITTED TO 20000.K

 NOTE. WEIGHT FRACTION OF FUEL IN TOTAL FUELS AND OF OXIDANT IN TOTAL OXIDANTS

              THEORETICAL ROCKET PERFORMANCE ASSUMING EQUILIBRIUM

           COMPOSITION DURING EXPANSION FROM INFINITE AREA COMBUSTOR

 Pin =   217.6 PSIA
 CASE = _______________

             REACTANT                    WT FRACTION      ENERGY      TEMP
                                          (SEE NOTE)     KJ/KG-MOL      K  
 FUEL        C2H5OH(L)                    1.0000000   -277750.443    296.000
 OXIDANT     O2                           1.0000000       -63.152    296.000

 O/F=    0.70000  %FUEL= 58.823529  R,EQ.RATIO= 2.321286  PHI,EQ.RATIO= 2.976826

                 CHAMBER   THROAT     EXIT     EXIT     EXIT     EXIT
 Pinf/P            1.0000   1.8105   5.0000   10.000   15.000   20.000
 P, BAR            15.000   8.2850   3.0000   1.5000   1.0000  0.75000
 T, K             1487.77  1312.47  1096.44  1005.54   963.71   937.28
 RHO, KG/CU M    1.9002 0 1.1913 0 5.2344-1 2.9091-1 2.0495-1 1.5952-1
 H, KJ/KG        -3547.33 -3987.32 -4627.19 -5003.62 -5206.96 -5344.73
 U, KJ/KG        -4336.72 -4682.77 -5200.32 -5519.24 -5694.87 -5814.88
 G, KJ/KG        -23183.4 -21309.7 -19098.3 -18275.1 -17926.2 -17715.3
 S, KJ/(KG)(K)    13.1983  13.1983  13.1983  13.1983  13.1983  13.1983

 M, (1/n)          15.671   15.691   15.906   16.215   16.422   16.576
 MW, MOL WT        15.671   15.691   15.906   16.215   16.422   16.576
 (dLV/dLP)t      -1.00093 -1.00353 -1.02662 -1.05100 -1.06335 -1.07085
 (dLV/dLT)p        1.0088   1.0384   1.3514   1.7375   1.9572   2.1014
 Cp, KJ/(KG)(K)    2.4965   2.6795   4.9501   8.0548   9.9433  11.2323
 GAMMAs            1.2745   1.2654   1.1994   1.1644   1.1517   1.1446
 SON VEL,M/SEC     1003.0    938.1    829.1    774.8    749.6    733.6
 MACH NUMBER        0.000    1.000    1.773    2.203    2.430    2.585

 PERFORMANCE PARAMETERS

 Ae/At                      1.0000   1.4528   2.2509   2.9929   3.6949
 CSTAR, M/SEC               1342.2   1342.2   1342.2   1342.2   1342.2
 CF                         0.6989   1.0949   1.2715   1.3574   1.4126
 Ivac, M/SEC                1679.4   1859.6   2008.8   2089.7   2144.0
 Isp, M/SEC                  938.1   1469.6   1706.6   1821.9   1896.0

 MASS FRACTIONS

 CH4              0.00024  0.00092  0.00783  0.01742  0.02367  0.02819
 *CO              0.62849  0.60716  0.55046  0.50116  0.47128  0.45005
 *CO2             0.13575  0.16740  0.23753  0.28869  0.31847  0.33944
 *H2              0.05721  0.05840  0.05901  0.05774  0.05674  0.05600
 H2O              0.17831  0.16612  0.14517  0.13500  0.12983  0.12632

  * THERMODYNAMIC PROPERTIES FITTED TO 20000.K

 NOTE. WEIGHT FRACTION OF FUEL IN TOTAL FUELS AND OF OXIDANT IN TOTAL OXIDANTS

              THEORETICAL ROCKET PERFORMANCE ASSUMING EQUILIBRIUM

           COMPOSITION DURING EXPANSION FROM INFINITE AREA COMBUSTOR

 Pin =   232.1 PSIA
 CASE = _______________

             REACTANT                    WT FRACTION      ENERGY      TEMP
                                          (SEE NOTE)     KJ/KG-MOL      K  
 FUEL        C2H5OH(L)                    1.0000000   -277750.443    296.000
 OXIDANT     O2                           1.0000000       -63.152    296.000

 O/F=    0.70000  %FUEL= 58.823529  R,EQ.RATIO= 2.321286  PHI,EQ.RATIO= 2.976826

                 CHAMBER   THROAT     EXIT     EXIT     EXIT     EXIT
 Pinf/P            1.0000   1.8098   5.0000   10.000   15.000   20.000
 P, BAR            16.000   8.8409   3.2000   1.6000   1.0667  0.80000
 T, K             1487.96  1313.23  1098.99  1008.46   966.60   940.11
 RHO, KG/CU M    2.0268 0 1.2708 0 5.5756-1 3.0977-1 2.1823-1 1.6986-1
 H, KJ/KG        -3547.33 -3987.11 -4627.76 -5004.80 -5208.49 -5346.51
 U, KJ/KG        -4336.77 -4682.81 -5201.69 -5521.31 -5697.26 -5817.47
 G, KJ/KG        -23134.9 -21274.6 -19094.9 -18280.2 -17932.8 -17722.2
 S, KJ/(KG)(K)    13.1640  13.1640  13.1640  13.1640  13.1640  13.1640

 M, (1/n)          15.672   15.695   15.921   16.234   16.443   16.597
 MW, MOL WT        15.672   15.695   15.921   16.234   16.443   16.597
 (dLV/dLP)t      -1.00105 -1.00395 -1.02799 -1.05225 -1.06442 -1.07180
 (dLV/dLT)p        1.0100   1.0430   1.3685   1.7532   1.9703   2.1126
 Cp, KJ/(KG)(K)    2.5024   2.7056   5.0593   8.1463  10.0097  11.2799
 GAMMAs            1.2742   1.2643   1.1981   1.1641   1.1517   1.1447
 SON VEL,M/SEC     1003.0    937.8    829.2    775.4    750.3    734.3
 MACH NUMBER        0.000    1.000    1.773    2.202    2.429    2.583

 PERFORMANCE PARAMETERS

 Ae/At                      1.0000   1.4541   2.2535   2.9962   3.6988
 CSTAR, M/SEC               1342.5   1342.5   1342.5   1342.5   1342.5
 CF                         0.6986   1.0950   1.2717   1.3577   1.4130
 Ivac, M/SEC                1679.7   1860.4   2009.8   2090.9   2145.2
 Isp, M/SEC                  937.8   1470.0   1707.3   1822.7   1896.9

 MASS FRACTIONS

 CH4              0.00027  0.00103  0.00829  0.01799  0.02428  0.02880
 *CO              0.62843  0.60699  0.54990  0.50056  0.47069  0.44947
 *CO2             0.13575  0.16735  0.23714  0.28805  0.31775  0.33867
 *H2              0.05720  0.05836  0.05882  0.05749  0.05648  0.05573
 H2O              0.17835  0.16627  0.14586  0.13591  0.13081  0.12733

  * THERMODYNAMIC PROPERTIES FITTED TO 20000.K

 NOTE. WEIGHT FRACTION OF FUEL IN TOTAL FUELS AND OF OXIDANT IN TOTAL OXIDANTS

              THEORETICAL ROCKET PERFORMANCE ASSUMING EQUILIBRIUM

           COMPOSITION DURING EXPANSION FROM INFINITE AREA COMBUSTOR

 Pin =   246.6 PSIA
 CASE = _______________

             REACTANT                    WT FRACTION      ENERGY      TEMP
                                          (SEE NOTE)     KJ/KG-MOL      K  
 FUEL        C2H5OH(L)                    1.0000000   -277750.443    296.000
 OXIDANT     O2                           1.0000000       -63.152    296.000

 O/F=    0.70000  %FUEL= 58.823529  R,EQ.RATIO= 2.321286  PHI,EQ.RATIO= 2.976826

                 CHAMBER   THROAT     EXIT     EXIT     EXIT     EXIT
 Pinf/P            1.0000   1.8091   5.0000   10.000   15.000   20.000
 P, BAR            17.000   9.3971   3.4000   1.7000   1.1333  0.85000
 T, K             1488.17  1314.02  1101.45  1011.23   969.34   942.79
 RHO, KG/CU M    2.1533 0 1.3502 0 5.9162-1 3.2860-1 2.3149-1 1.8018-1
 H, KJ/KG        -3547.33 -3986.90 -4628.33 -5005.94 -5209.97 -5348.21
 U, KJ/KG        -4336.82 -4682.86 -5203.02 -5523.29 -5699.55 -5819.95
 G, KJ/KG        -23089.7 -21242.4 -19092.4 -18285.3 -17939.2 -17728.8
 S, KJ/(KG)(K)    13.1319  13.1319  13.1319  13.1319  13.1319  13.1319

 M, (1/n)          15.673   15.698   15.935   16.252   16.462   16.617
 MW, MOL WT        15.673   15.698   15.935   16.252   16.462   16.617
 (dLV/dLP)t      -1.00118 -1.00438 -1.02929 -1.05341 -1.06541 -1.07267
 (dLV/dLT)p        1.0112   1.0477   1.3848   1.7677   1.9824   2.1230
 Cp, KJ/(KG)(K)    2.5087   2.7325   5.1616   8.2299  10.0697  11.3223
 GAMMAs            1.2740   1.2632   1.1970   1.1639   1.1517   1.1448
 SON VEL,M/SEC     1002.9    937.6    829.4    776.0    750.9    734.9
 MACH NUMBER        0.000    1.000    1.773    2.201    2.428    2.582

 PERFORMANCE PARAMETERS

 Ae/At                      1.0000   1.4554   2.2558   2.9991   3.7023
 CSTAR, M/SEC               1342.8   1342.8   1342.8   1342.8   1342.8
 CF                         0.6983   1.0950   1.2720   1.3580   1.4134
 Ivac, M/SEC                1679.9   1861.2   2010.9   2092.0   2146.4
 Isp, M/SEC                  937.6   1470.4   1708.0   1823.5   1897.8

 MASS FRACTIONS

 CH4              0.00030  0.00115  0.00875  0.01855  0.02485  0.02939
 *CO              0.62837  0.60683  0.54934  0.49997  0.47012  0.44891
 *CO2             0.13576  0.16729  0.23677  0.28745  0.31707  0.33795
 *H2              0.05718  0.05831  0.05863  0.05726  0.05624  0.05548
 H2O              0.17838  0.16642  0.14651  0.13677  0.13173  0.12827

  * THERMODYNAMIC PROPERTIES FITTED TO 20000.K

 NOTE. WEIGHT FRACTION OF FUEL IN TOTAL FUELS AND OF OXIDANT IN TOTAL OXIDANTS

              THEORETICAL ROCKET PERFORMANCE ASSUMING EQUILIBRIUM

           COMPOSITION DURING EXPANSION FROM INFINITE AREA COMBUSTOR

 Pin =   261.1 PSIA
 CASE = _______________

             REACTANT                    WT FRACTION      ENERGY      TEMP
                                          (SEE NOTE)     KJ/KG-MOL      K  
 FUEL        C2H5OH(L)                    1.0000000   -277750.443    296.000
 OXIDANT     O2                           1.0000000       -63.152    296.000

 O/F=    0.70000  %FUEL= 58.823529  R,EQ.RATIO= 2.321286  PHI,EQ.RATIO= 2.976826

                 CHAMBER   THROAT     EXIT     EXIT     EXIT     EXIT
 Pinf/P            1.0000   1.8083   5.0000   10.000   15.000   20.000
 P, BAR            18.000   9.9539   3.6000   1.8000   1.2000  0.90000
 T, K             1488.38  1314.82  1103.81  1013.87   971.94   945.33
 RHO, KG/CU M    2.2798 0 1.4297 0 6.2562-1 3.4739-1 2.4473-1 1.9049-1
 H, KJ/KG        -3547.33 -3986.69 -4628.90 -5007.05 -5211.39 -5349.85
 U, KJ/KG        -4336.88 -4682.91 -5204.33 -5525.20 -5701.74 -5822.32
 G, KJ/KG        -23047.4 -21212.9 -19090.6 -18290.3 -17945.2 -17735.1
 S, KJ/(KG)(K)    13.1015  13.1015  13.1015  13.1015  13.1015  13.1015

 M, (1/n)          15.674   15.702   15.949   16.269   16.481   16.636
 MW, MOL WT        15.674   15.702   15.949   16.269   16.481   16.636
 (dLV/dLP)t      -1.00132 -1.00483 -1.03053 -1.05450 -1.06634 -1.07350
 (dLV/dLT)p        1.0125   1.0525   1.4002   1.7813   1.9936   2.1325
 Cp, KJ/(KG)(K)    2.5152   2.7600   5.2578   8.3066  10.1240  11.3601
 GAMMAs            1.2737   1.2621   1.1960   1.1638   1.1517   1.1449
 SON VEL,M/SEC     1002.8    937.4    829.6    776.5    751.5    735.5
 MACH NUMBER        0.000    1.000    1.773    2.200    2.428    2.582

 PERFORMANCE PARAMETERS

 Ae/At                     1.00000   1.4565   2.2579   3.0019   3.7055
 CSTAR, M/SEC               1343.1   1343.1   1343.1   1343.1   1343.1
 CF                         0.6980   1.0951   1.2722   1.3583   1.4137
 Ivac, M/SEC                1680.1   1862.0   2011.9   2093.1   2147.5
 Isp, M/SEC                  937.4   1470.8   1708.6   1824.3   1898.7

 MASS FRACTIONS

 CH4              0.00034  0.00127  0.00918  0.01907  0.02539  0.02994
 *CO              0.62831  0.60665  0.54881  0.49941  0.46957  0.44838
 *CO2             0.13576  0.16724  0.23642  0.28689  0.31643  0.33727
 *H2              0.05717  0.05826  0.05845  0.05703  0.05600  0.05524
 H2O              0.17842  0.16658  0.14715  0.13759  0.13260  0.12917

  * THERMODYNAMIC PROPERTIES FITTED TO 20000.K

 NOTE. WEIGHT FRACTION OF FUEL IN TOTAL FUELS AND OF OXIDANT IN TOTAL OXIDANTS

              THEORETICAL ROCKET PERFORMANCE ASSUMING EQUILIBRIUM

           COMPOSITION DURING EXPANSION FROM INFINITE AREA COMBUSTOR

 Pin =   275.6 PSIA
 CASE = _______________

             REACTANT                    WT FRACTION      ENERGY      TEMP
                                          (SEE NOTE)     KJ/KG-MOL      K  
 FUEL        C2H5OH(L)                    1.0000000   -277750.443    296.000
 OXIDANT     O2                           1.0000000       -63.152    296.000

 O/F=    0.70000  %FUEL= 58.823529  R,EQ.RATIO= 2.321286  PHI,EQ.RATIO= 2.976826

                 CHAMBER   THROAT     EXIT     EXIT     EXIT     EXIT
 Pinf/P            1.0000   1.8076   5.0000   10.000   15.000   20.000
 P, BAR            19.000   10.511   3.8000   1.9000   1.2667  0.95000
 T, K             1488.60  1315.65  1106.10  1016.39   974.41   947.74
 RHO, KG/CU M    2.4062 0 1.5091 0 6.5956-1 3.6616-1 2.5794-1 2.0078-1
 H, KJ/KG        -3547.33 -3986.49 -4629.46 -5008.13 -5212.77 -5351.43
 U, KJ/KG        -4336.94 -4682.98 -5205.59 -5527.04 -5703.84 -5824.59
 G, KJ/KG        -23007.7 -21185.8 -19089.3 -18295.2 -17951.1 -17741.1
 S, KJ/(KG)(K)    13.0729  13.0729  13.0729  13.0729  13.0729  13.0729

 M, (1/n)          15.675   15.706   15.963   16.286   16.498   16.654
 MW, MOL WT        15.675   15.706   15.963   16.286   16.498   16.654
 (dLV/dLP)t      -1.00146 -1.00529 -1.03171 -1.05552 -1.06721 -1.07426
 (dLV/dLT)p        1.0139   1.0574   1.4148   1.7939   2.0041   2.1414
 Cp, KJ/(KG)(K)    2.5221   2.7880   5.3483   8.3772  10.1734  11.3940
 GAMMAs            1.2735   1.2611   1.1951   1.1636   1.1517   1.1450
 SON VEL,M/SEC     1002.8    937.2    829.8    777.1    752.1    736.1
 MACH NUMBER        0.000    1.000    1.773    2.200    2.427    2.581

 PERFORMANCE PARAMETERS

 Ae/At                      1.0000   1.4576   2.2599   3.0044   3.7085
 CSTAR, M/SEC               1343.4   1343.4   1343.4   1343.4   1343.4
 CF                         0.6976   1.0951   1.2724   1.3586   1.4140
 Ivac, M/SEC                1680.4   1862.8   2012.9   2094.1   2148.6
 Isp, M/SEC                  937.2   1471.1   1709.3   1825.1   1899.5

 MASS FRACTIONS

 CH4              0.00038  0.00139  0.00960  0.01957  0.02592  0.03046
 *CO              0.62824  0.60647  0.54828  0.49887  0.46904  0.44786
 *CO2             0.13576  0.16719  0.23608  0.28637  0.31583  0.33663
 *H2              0.05716  0.05821  0.05827  0.05682  0.05578  0.05501
 H2O              0.17846  0.16674  0.14776  0.13837  0.13343  0.13002

  * THERMODYNAMIC PROPERTIES FITTED TO 20000.K

 NOTE. WEIGHT FRACTION OF FUEL IN TOTAL FUELS AND OF OXIDANT IN TOTAL OXIDANTS

              THEORETICAL ROCKET PERFORMANCE ASSUMING EQUILIBRIUM

           COMPOSITION DURING EXPANSION FROM INFINITE AREA COMBUSTOR

 Pin =   290.1 PSIA
 CASE = _______________

             REACTANT                    WT FRACTION      ENERGY      TEMP
                                          (SEE NOTE)     KJ/KG-MOL      K  
 FUEL        C2H5OH(L)                    1.0000000   -277750.443    296.000
 OXIDANT     O2                           1.0000000       -63.152    296.000

 O/F=    0.70000  %FUEL= 58.823529  R,EQ.RATIO= 2.321286  PHI,EQ.RATIO= 2.976826

                 CHAMBER   THROAT     EXIT     EXIT     EXIT     EXIT
 Pinf/P            1.0000   1.8069   5.0000   10.000   15.000   20.000
 P, BAR            20.000   11.069   4.0000   2.0000   1.3333   1.0000
 T, K             1488.84  1316.49  1108.31  1018.80   976.77   950.05
 RHO, KG/CU M    2.5327 0 1.5886 0 6.9346-1 3.8489-1 2.7114-1 2.1105-1
 H, KJ/KG        -3547.33 -3986.29 -4630.01 -5009.18 -5214.11 -5352.96
 U, KJ/KG        -4337.01 -4683.05 -5206.83 -5528.81 -5705.86 -5826.78
 G, KJ/KG        -22970.2 -21160.8 -19088.6 -18300.1 -17956.8 -17747.0
 S, KJ/(KG)(K)    13.0457  13.0457  13.0457  13.0457  13.0457  13.0457

 M, (1/n)          15.676   15.710   15.976   16.302   16.515   16.671
 MW, MOL WT        15.676   15.710   15.976   16.302   16.515   16.671
 (dLV/dLP)t      -1.00162 -1.00575 -1.03284 -1.05649 -1.06803 -1.07499
 (dLV/dLT)p        1.0153   1.0624   1.4286   1.8058   2.0138   2.1496
 Cp, KJ/(KG)(K)    2.5293   2.8166   5.4337   8.4424  10.2185  11.4246
 GAMMAs            1.2732   1.2600   1.1942   1.1635   1.1518   1.1451
 SON VEL,M/SEC     1002.7    937.0    830.0    777.5    752.6    736.6
 MACH NUMBER        0.000    1.000    1.773    2.199    2.426    2.580

 PERFORMANCE PARAMETERS

 Ae/At                     1.00000   1.4586   2.2617   3.0067   3.7112
 CSTAR, M/SEC               1343.7   1343.7   1343.7   1343.7   1343.7
 CF                         0.6973   1.0951   1.2725   1.3588   1.4143
 Ivac, M/SEC                1680.6   1863.5   2013.8   2095.1   2149.7
 Isp, M/SEC                  937.0   1471.5   1709.9   1825.8   1900.3

 MASS FRACTIONS

[...]
 U, KJ/KG        -3330.69 -3884.75 -4888.38 -5485.94 -5816.72 -6043.23
 G, KJ/KG        -41146.2 -40068.2 -38136.1 -36965.8 -36294.2 -35816.8
 S, KJ/(KG)(K)    11.8045  11.8045  11.8045  11.8045  11.8045  11.8045

 M, (1/n)          23.350   23.670   24.275   24.647   24.853   24.993
 MW, MOL WT        23.350   23.670   24.275   24.647   24.853   24.993
 (dLV/dLP)t      -1.04292 -1.03873 -1.03016 -1.02429 -1.02073 -1.01815
 (dLV/dLT)p        1.8249   1.7805   1.6655   1.5681   1.5018   1.4504
 Cp, KJ/(KG)(K)    7.8361   7.7049   7.1867   6.6240   6.1951   5.8412
 GAMMAs            1.1216   1.1183   1.1136   1.1123   1.1124   1.1132
 SON VEL,M/SEC     1148.6   1114.0   1051.9   1014.9    994.4    980.4
 MACH NUMBER        0.000    1.000    1.774    2.161    2.368    2.509

 PERFORMANCE PARAMETERS

 Ae/At                      1.0000   1.5528   2.4624   3.3019   4.0940
 CSTAR, M/SEC               1714.8   1714.8   1714.8   1714.8   1714.8
 CF                         0.6497   1.0880   1.2791   1.3734   1.4345
 Ivac, M/SEC                2110.2   2398.2   2615.6   2732.6   2810.8
 Isp, M/SEC                 1114.0   1865.7   2193.3   2355.1   2459.8

 MASS FRACTIONS

 *CO              0.23238  0.21931  0.19371  0.17753  0.16842  0.16220
 *CO2             0.31723  0.33778  0.37801  0.40343  0.41773  0.42752
 COOH             0.00001  0.00001  0.00000  0.00000  0.00000  0.00000
 *H               0.00097  0.00083  0.00060  0.00048  0.00041  0.00036
 HCO              0.00001  0.00000  0.00000  0.00000  0.00000  0.00000
 HO2              0.00011  0.00007  0.00003  0.00001  0.00001  0.00001
 *H2              0.00542  0.00508  0.00448  0.00414  0.00396  0.00385
 H2O              0.33545  0.34343  0.35751  0.36551  0.36975  0.37254
 H2O2             0.00001  0.00001  0.00000  0.00000  0.00000  0.00000
 *O               0.00918  0.00732  0.00436  0.00288  0.00216  0.00172
 *OH              0.04983  0.04278  0.03030  0.02312  0.01924  0.01664
 *O2              0.04940  0.04337  0.03100  0.02291  0.01831  0.01517

  * THERMODYNAMIC PROPERTIES FITTED TO 20000.K

 NOTE. WEIGHT FRACTION OF FUEL IN TOTAL FUELS AND OF OXIDANT IN TOTAL OXIDANTS

              THEORETICAL ROCKET PERFORMANCE ASSUMING EQUILIBRIUM

           COMPOSITION DURING EXPANSION FROM INFINITE AREA COMBUSTOR

 Pin =   261.1 PSIA
 CASE = _______________

             REACTANT                    WT FRACTION      ENERGY      TEMP
                                          (SEE NOTE)     KJ/KG-MOL      K  
 FUEL        C2H5OH(L)                    1.0000000   -277750.443    296.000
 OXIDANT     O2                           1.0000000       -63.152    296.000

 O/F=    1.80000  %FUEL= 35.714286  R,EQ.RATIO= 1.132156  PHI,EQ.RATIO= 1.157654

                 CHAMBER   THROAT     EXIT     EXIT     EXIT     EXIT
 Pinf/P            1.0000   1.7215   5.0000   10.000   15.000   20.000
 P, BAR            18.000   10.456   3.6000   1.8000   1.2000  0.90000
 T, K             3310.20  3165.51  2905.63  2749.31  2660.74  2598.56
 RHO, KG/CU M    1.5282 0 9.4094-1 3.6195-1 1.9418-1 1.3488-1 1.0416-1
 H, KJ/KG        -2154.51 -2775.99 -3897.12 -4562.77 -4931.03 -5183.28
 U, KJ/KG        -3332.40 -3887.20 -4891.74 -5489.75 -5820.73 -6047.35
 G, KJ/KG        -41162.5 -40079.0 -38137.6 -36961.1 -36285.6 -35805.1
 S, KJ/(KG)(K)    11.7842  11.7842  11.7842  11.7842  11.7842  11.7842

 M, (1/n)          23.366   23.686   24.290   24.660   24.865   25.005
 MW, MOL WT        23.366   23.686   24.290   24.660   24.865   25.005
 (dLV/dLP)t      -1.04267 -1.03848 -1.02992 -1.02405 -1.02049 -1.01791
 (dLV/dLT)p        1.8185   1.7741   1.6592   1.5618   1.4954   1.4440
 Cp, KJ/(KG)(K)    7.7781   7.6471   7.1292   6.5663   6.1373   5.7833
 GAMMAs            1.1219   1.1186   1.1139   1.1126   1.1128   1.1136
 SON VEL,M/SEC     1149.5   1114.9   1052.6   1015.6    995.0    980.9
 MACH NUMBER        0.000    1.000    1.774    2.161    2.368    2.509

 PERFORMANCE PARAMETERS

 Ae/At                      1.0000   1.5525   2.4616   3.3006   4.0922
 CSTAR, M/SEC               1715.9   1715.9   1715.9   1715.9   1715.9
 CF                         0.6498   1.0880   1.2790   1.3734   1.4344
 Ivac, M/SEC                2111.6   2399.6   2617.0   2734.0   2812.3
 Isp, M/SEC                 1114.9   1866.9   2194.7   2356.5   2461.2

 MASS FRACTIONS

 *CO              0.23193  0.21885  0.19327  0.17711  0.16803  0.16182
 *CO2             0.31793  0.33849  0.37870  0.40408  0.41836  0.42811
 COOH             0.00001  0.00001  0.00000  0.00000  0.00000  0.00000
 *H               0.00095  0.00082  0.00059  0.00047  0.00040  0.00035
 HCO              0.00001  0.00000  0.00000  0.00000  0.00000  0.00000
 HO2              0.00012  0.00007  0.00003  0.00001  0.00001  0.00001
 *H2              0.00540  0.00506  0.00446  0.00412  0.00395  0.00383
 H2O              0.33586  0.34383  0.35786  0.36583  0.37005  0.37283
 H2O2             0.00001  0.00001  0.00000  0.00000  0.00000  0.00000
 *O               0.00907  0.00723  0.00429  0.00283  0.00212  0.00168
 *OH              0.04967  0.04262  0.03013  0.02295  0.01908  0.01648
 *O2              0.04904  0.04302  0.03067  0.02259  0.01801  0.01488

  * THERMODYNAMIC PROPERTIES FITTED TO 20000.K

 NOTE. WEIGHT FRACTION OF FUEL IN TOTAL FUELS AND OF OXIDANT IN TOTAL OXIDANTS

              THEORETICAL ROCKET PERFORMANCE ASSUMING EQUILIBRIUM

           COMPOSITION DURING EXPANSION FROM INFINITE AREA COMBUSTOR

 Pin =   275.6 PSIA
 CASE = _______________

             REACTANT                    WT FRACTION      ENERGY      TEMP
                                          (SEE NOTE)     KJ/KG-MOL      K  
 FUEL        C2H5OH(L)                    1.0000000   -277750.443    296.000
 OXIDANT     O2                           1.0000000       -63.152    296.000

 O/F=    1.80000  %FUEL= 35.714286  R,EQ.RATIO= 1.132156  PHI,EQ.RATIO= 1.157654

                 CHAMBER   THROAT     EXIT     EXIT     EXIT     EXIT
 Pinf/P            1.0000   1.7217   5.0000   10.000   15.000   20.000
 P, BAR            19.000   11.036   3.8000   1.9000   1.2667  0.95000
 T, K             3316.90  3171.47  2910.30  2753.17  2664.11  2601.57
 RHO, KG/CU M    1.6108 0 9.9188-1 3.8166-1 2.0478-1 1.4226-1 1.0987-1
 H, KJ/KG        -2154.51 -2776.91 -3899.24 -4565.55 -4934.11 -5186.55
 U, KJ/KG        -3334.02 -3889.52 -4894.90 -5493.35 -5824.52 -6051.23
 G, KJ/KG        -41177.7 -40089.1 -38138.8 -36956.4 -36277.2 -35793.9
 S, KJ/(KG)(K)    11.7649  11.7649  11.7649  11.7649  11.7649  11.7649

 M, (1/n)          23.381   23.700   24.303   24.672   24.877   25.016
 MW, MOL WT        23.381   23.700   24.303   24.672   24.877   25.016
 (dLV/dLP)t      -1.04242 -1.03824 -1.02969 -1.02382 -1.02026 -1.01768
 (dLV/dLT)p        1.8124   1.7681   1.6532   1.5557   1.4894   1.4379
 Cp, KJ/(KG)(K)    7.7237   7.5928   7.0751   6.5121   6.0829   5.7289
 GAMMAs            1.1221   1.1188   1.1142   1.1129   1.1131   1.1139
 SON VEL,M/SEC     1150.4   1115.7   1053.3   1016.1    995.6    981.4
 MACH NUMBER        0.000    1.000    1.774    2.161    2.368    2.509

 PERFORMANCE PARAMETERS

 Ae/At                      1.0000   1.5522   2.4609   3.2994   4.0904
 CSTAR, M/SEC               1716.9   1716.9   1716.9   1716.9   1716.9
 CF                         0.6498   1.0880   1.2790   1.3733   1.4343
 Ivac, M/SEC                2112.9   2401.0   2618.4   2735.4   2813.7
 Isp, M/SEC                 1115.7   1868.0   2195.9   2357.8   2462.5

 MASS FRACTIONS

 *CO              0.23150  0.21842  0.19285  0.17671  0.16765  0.16146
 *CO2             0.31860  0.33917  0.37935  0.40471  0.41895  0.42867
 COOH             0.00001  0.00001  0.00000  0.00000  0.00000  0.00000
 *H               0.00094  0.00081  0.00059  0.00046  0.00039  0.00035
 HCO              0.00001  0.00000  0.00000  0.00000  0.00000  0.00000
 HO2              0.00012  0.00008  0.00003  0.00001  0.00001  0.00001
 *H2              0.00538  0.00504  0.00444  0.00410  0.00393  0.00382
 H2O              0.33625  0.34420  0.35819  0.36613  0.37034  0.37310
 H2O2             0.00001  0.00001  0.00000  0.00000  0.00000  0.00000
 *O               0.00896  0.00713  0.00422  0.00278  0.00208  0.00164
 *OH              0.04951  0.04246  0.02998  0.02280  0.01893  0.01633
 *O2              0.04870  0.04268  0.03034  0.02229  0.01773  0.01462

  * THERMODYNAMIC PROPERTIES FITTED TO 20000.K

 NOTE. WEIGHT FRACTION OF FUEL IN TOTAL FUELS AND OF OXIDANT IN TOTAL OXIDANTS

              THEORETICAL ROCKET PERFORMANCE ASSUMING EQUILIBRIUM

           COMPOSITION DURING EXPANSION FROM INFINITE AREA COMBUSTOR

 Pin =   290.1 PSIA
 CASE = _______________

             REACTANT                    WT FRACTION      ENERGY      TEMP
                                          (SEE NOTE)     KJ/KG-MOL      K  
 FUEL        C2H5OH(L)                    1.0000000   -277750.443    296.000
 OXIDANT     O2                           1.0000000       -63.152    296.000

 O/F=    1.80000  %FUEL= 35.714286  R,EQ.RATIO= 1.132156  PHI,EQ.RATIO= 1.157654

                 CHAMBER   THROAT     EXIT     EXIT     EXIT     EXIT
 Pinf/P            1.0000   1.7218   5.0000   10.000   15.000   20.000
 P, BAR            20.000   11.616   4.0000   2.0000   1.3333   1.0000
 T, K             3323.27  3177.12  2914.73  2756.82  2667.30  2604.41
 RHO, KG/CU M    1.6934 0 1.0428 0 4.0134-1 2.1538-1 1.4963-1 1.1557-1
 H, KJ/KG        -2154.51 -2777.79 -3901.25 -4568.17 -4937.03 -5189.65
 U, KJ/KG        -3335.55 -3891.72 -4897.91 -5496.76 -5828.10 -6054.90
 G, KJ/KG        -41192.0 -40098.5 -38139.8 -36951.7 -36269.0 -35782.9
 S, KJ/(KG)(K)    11.7467  11.7467  11.7467  11.7467  11.7467  11.7467

 M, (1/n)          23.396   23.714   24.316   24.684   24.888   25.027
 MW, MOL WT        23.396   23.714   24.316   24.684   24.888   25.027
 (dLV/dLP)t      -1.04219 -1.03802 -1.02946 -1.02360 -1.02004 -1.01746
 (dLV/dLT)p        1.8067   1.7624   1.6475   1.5501   1.4837   1.4322
 Cp, KJ/(KG)(K)    7.6724   7.5416   7.0240   6.4609   6.0316   5.6776
 GAMMAs            1.1223   1.1191   1.1144   1.1132   1.1134   1.1143
 SON VEL,M/SEC     1151.3   1116.5   1053.9   1016.7    996.1    981.9
 MACH NUMBER        0.000    1.000    1.774    2.161    2.368    2.509

 PERFORMANCE PARAMETERS

 Ae/At                      1.0000   1.5520   2.4602   3.2982   4.0886
 CSTAR, M/SEC               1717.9   1717.9   1717.9   1717.9   1717.9
 CF                         0.6499   1.0880   1.2790   1.3732   1.4342
 Ivac, M/SEC                2114.2   2402.3   2619.8   2736.8   2815.0
 Isp, M/SEC                 1116.5   1869.1   2197.1   2359.0   2463.8

 MASS FRACTIONS

 *CO              0.23109  0.21801  0.19245  0.17634  0.16729  0.16112
 *CO2             0.31925  0.33981  0.37998  0.40530  0.41951  0.42921
 COOH             0.00001  0.00001  0.00000  0.00000  0.00000  0.00000
 *H               0.00093  0.00080  0.00058  0.00045  0.00039  0.00034
 HCO              0.00001  0.00000  0.00000  0.00000  0.00000  0.00000
 HO2              0.00012  0.00008  0.00003  0.00001  0.00001  0.00001
 *H2              0.00535  0.00502  0.00442  0.00409  0.00391  0.00380
 H2O              0.33662  0.34455  0.35851  0.36642  0.37061  0.37336
 H2O2             0.00001  0.00001  0.00000  0.00000  0.00000  0.00000
 *O               0.00886  0.00704  0.00416  0.00273  0.00204  0.00161
 *OH              0.04936  0.04231  0.02983  0.02265  0.01878  0.01619
 *O2              0.04837  0.04236  0.03004  0.02201  0.01746  0.01437

  * THERMODYNAMIC PROPERTIES FITTED TO 20000.K

 NOTE. WEIGHT FRACTION OF FUEL IN TOTAL FUELS AND OF OXIDANT IN TOTAL OXIDANTS

              THEORETICAL ROCKET PERFORMANCE ASSUMING EQUILIBRIUM

           COMPOSITION DURING EXPANSION FROM INFINITE AREA COMBUSTOR

 Pin =   304.6 PSIA
 CASE = _______________

             REACTANT                    WT FRACTION      ENERGY      TEMP
                                          (SEE NOTE)     KJ/KG-MOL      K  
 FUEL        C2H5OH(L)                    1.0000000   -277750.443    296.000
 OXIDANT     O2                           1.0000000       -63.152    296.000

 O/F=    1.80000  %FUEL= 35.714286  R,EQ.RATIO= 1.132156  PHI,EQ.RATIO= 1.157654

                 CHAMBER   THROAT     EXIT     EXIT     EXIT     EXIT
 Pinf/P            1.0000   1.7220   5.0000   10.000   15.000   20.000
 P, BAR            21.000   12.195   4.2000   2.1000   1.4000   1.0500
 T, K             3329.33  3182.49  2918.94  2760.29  2670.32  2607.10
 RHO, KG/CU M    1.7759 0 1.0936 0 4.2101-1 2.2597-1 1.5700-1 1.2127-1
 H, KJ/KG        -2154.51 -2778.61 -3903.16 -4570.67 -4939.80 -5192.59
 U, KJ/KG        -3337.01 -3893.80 -4900.75 -5500.00 -5831.50 -6058.39
 G, KJ/KG        -41205.5 -40107.3 -38140.5 -36947.1 -36261.0 -35772.2
 S, KJ/(KG)(K)    11.7294  11.7294  11.7294  11.7294  11.7294  11.7294

 M, (1/n)          23.410   23.728   24.328   24.696   24.899   25.037
 MW, MOL WT        23.410   23.728   24.328   24.696   24.899   25.037
 (dLV/dLP)t      -1.04197 -1.03780 -1.02925 -1.02339 -1.01983 -1.01726
 (dLV/dLT)p        1.8012   1.7570   1.6422   1.5447   1.4783   1.4268
 Cp, KJ/(KG)(K)    7.6239   7.4932   6.9758   6.4125   5.9830   5.6291
 GAMMAs            1.1226   1.1193   1.1147   1.1134   1.1138   1.1146
 SON VEL,M/SEC     1152.1   1117.2   1054.5   1017.2    996.6    982.4
 MACH NUMBER        0.000    1.000    1.773    2.161    2.368    2.509

 PERFORMANCE PARAMETERS

 Ae/At                      1.0000   1.5518   2.4596   3.2971   4.0870
 CSTAR, M/SEC               1718.8   1718.8   1718.8   1718.8   1718.8
 CF                         0.6500   1.0880   1.2789   1.3732   1.4341
 Ivac, M/SEC                2115.4   2403.5   2621.0   2738.0   2816.2
 Isp, M/SEC                 1117.2   1870.1   2198.3   2360.2   2465.0

 MASS FRACTIONS

 *CO              0.23070  0.21762  0.19207  0.17598  0.16695  0.16080
 *CO2             0.31986  0.34043  0.38058  0.40587  0.42005  0.42971
 COOH             0.00001  0.00001  0.00000  0.00000  0.00000  0.00000
 *H               0.00092  0.00079  0.00057  0.00045  0.00038  0.00034
 HCO              0.00001  0.00000  0.00000  0.00000  0.00000  0.00000
 HO2              0.00012  0.00008  0.00003  0.00001  0.00001  0.00001
 *H2              0.00533  0.00500  0.00440  0.00407  0.00390  0.00379
 H2O              0.33697  0.34489  0.35881  0.36670  0.37086  0.37360
 H2O2             0.00001  0.00001  0.00000  0.00000  0.00000  0.00000
 *O               0.00876  0.00696  0.00410  0.00268  0.00200  0.00158
 *OH              0.04922  0.04216  0.02968  0.02251  0.01865  0.01605
 *O2              0.04807  0.04205  0.02975  0.02174  0.01721  0.01413

  * THERMODYNAMIC PROPERTIES FITTED TO 20000.K

 NOTE. WEIGHT FRACTION OF FUEL IN TOTAL FUELS AND OF OXIDANT IN TOTAL OXIDANTS

              THEORETICAL ROCKET PERFORMANCE ASSUMING EQUILIBRIUM

           COMPOSITION DURING EXPANSION FROM INFINITE AREA COMBUSTOR

 Pin =   319.1 PSIA
 CASE = _______________

             REACTANT                    WT FRACTION      ENERGY      TEMP
                                          (SEE NOTE)     KJ/KG-MOL      K  
 FUEL        C2H5OH(L)                    1.0000000   -277750.443    296.000
 OXIDANT     O2                           1.0000000       -63.152    296.000

 O/F=    1.80000  %FUEL= 35.714286  R,EQ.RATIO= 1.132156  PHI,EQ.RATIO= 1.157654

                 CHAMBER   THROAT     EXIT     EXIT     EXIT     EXIT
 Pinf/P            1.0000   1.7221   5.0000   10.000   15.000   20.000
 P, BAR            22.000   12.775   4.4000   2.2000   1.4667   1.1000
 T, K             3335.11  3187.62  2922.95  2763.58  2673.19  2609.65
 RHO, KG/CU M    1.8583 0 1.1443 0 4.4067-1 2.3655-1 1.6437-1 1.2697-1
 H, KJ/KG        -2154.51 -2779.40 -3904.98 -4573.04 -4942.44 -5195.38
 U, KJ/KG        -3338.40 -3895.79 -4903.47 -5503.07 -5834.73 -6061.70
 G, KJ/KG        -41218.2 -40115.6 -38141.1 -36942.5 -36253.1 -35761.8
 S, KJ/(KG)(K)    11.7129  11.7129  11.7129  11.7129  11.7129  11.7129

 M, (1/n)          23.423   23.740   24.340   24.706   24.909   25.046
 MW, MOL WT        23.423   23.740   24.340   24.706   24.909   25.046
 (dLV/dLP)t      -1.04176 -1.03759 -1.02905 -1.02319 -1.01963 -1.01706
 (dLV/dLT)p        1.7961   1.7519   1.6371   1.5396   1.4731   1.4217
 Cp, KJ/(KG)(K)    7.5780   7.4473   6.9300   6.3666   5.9370   5.5830
 GAMMAs            1.1228   1.1195   1.1149   1.1137   1.1140   1.1150
 SON VEL,M/SEC     1152.9   1117.9   1055.1   1017.7    997.0    982.8
 MACH NUMBER        0.000    1.000    1.773    2.161    2.368    2.509

 PERFORMANCE PARAMETERS

 Ae/At                      1.0000   1.5515   2.4590   3.2960   4.0854
 CSTAR, M/SEC               1719.7   1719.7   1719.7   1719.7   1719.7
 CF                         0.6501   1.0880   1.2789   1.3731   1.4340
 Ivac, M/SEC                2116.6   2404.7   2622.2   2739.2   2817.4
 Isp, M/SEC                 1117.9   1871.1   2199.3   2361.3   2466.1

 MASS FRACTIONS

 *CO              0.23032  0.21724  0.19171  0.17563  0.16663  0.16049
 *CO2             0.32045  0.34102  0.38115  0.40641  0.42056  0.43020
 COOH             0.00001  0.00001  0.00000  0.00000  0.00000  0.00000
 *H               0.00091  0.00078  0.00056  0.00044  0.00038  0.00033
 HCO              0.00001  0.00000  0.00000  0.00000  0.00000  0.00000
 HO2              0.00013  0.00008  0.00003  0.00001  0.00001  0.00001
 *H2              0.00531  0.00498  0.00439  0.00405  0.00388  0.00378
 H2O              0.33731  0.34521  0.35909  0.36696  0.37111  0.37383
 H2O2             0.00002  0.00001  0.00000  0.00000  0.00000  0.00000
 *O               0.00867  0.00688  0.00405  0.00264  0.00196  0.00154
 *OH              0.04908  0.04202  0.02954  0.02237  0.01851  0.01592
 *O2              0.04777  0.04176  0.02947  0.02148  0.01696  0.01390

  * THERMODYNAMIC PROPERTIES FITTED TO 20000.K

 NOTE. WEIGHT FRACTION OF FUEL IN TOTAL FUELS AND OF OXIDANT IN TOTAL OXIDANTS

              THEORETICAL ROCKET PERFORMANCE ASSUMING EQUILIBRIUM

           COMPOSITION DURING EXPANSION FROM INFINITE AREA COMBUSTOR

 Pin =   333.6 PSIA
 CASE = _______________

             REACTANT                    WT FRACTION      ENERGY      TEMP
                                          (SEE NOTE)     KJ/KG-MOL      K  
 FUEL        C2H5OH(L)                    1.0000000   -277750.443    296.000
 OXIDANT     O2                           1.0000000       -63.152    296.000

 O/F=    1.80000  %FUEL= 35.714286  R,EQ.RATIO= 1.132156  PHI,EQ.RATIO= 1.157654

                 CHAMBER   THROAT     EXIT     EXIT     EXIT     EXIT
 Pinf/P            1.0000   1.7222   5.0000   10.000   15.000   20.000
 P, BAR            23.000   13.355   4.6000   2.3000   1.5333   1.1500
 T, K             3340.64  3192.52  2926.78  2766.73  2675.92  2612.07
 RHO, KG/CU M    1.9406 0 1.1950 0 4.6031-1 2.4712-1 1.7173-1 1.3267-1
 H, KJ/KG        -2154.51 -2780.16 -3906.72 -4575.30 -4944.95 -5198.05
 U, KJ/KG        -3339.73 -3897.69 -4906.06 -5506.01 -5837.81 -6064.85
 G, KJ/KG        -41230.3 -40123.4 -38141.5 -36938.0 -36245.4 -35751.7
 S, KJ/(KG)(K)    11.6971  11.6971  11.6971  11.6971  11.6971  11.6971

 M, (1/n)          23.435   23.753   24.351   24.717   24.919   25.055
 MW, MOL WT        23.435   23.753   24.351   24.717   24.919   25.055
 (dLV/dLP)t      -1.04156 -1.03740 -1.02886 -1.02300 -1.01944 -1.01687
 (dLV/dLT)p        1.7911   1.7470   1.6322   1.5347   1.4682   1.4168
 Cp, KJ/(KG)(K)    7.5343   7.4037   6.8865   6.3229   5.8932   5.5393
 GAMMAs            1.1230   1.1197   1.1151   1.1140   1